@<TRIPOS>MOLECULE
CHEMBL112640_LIG
52 55 1 0 0
SMALL
USER_CHARGES

@<TRIPOS>ATOM
1 C1 224.0726 160.3044 173.3307 C.3 778 ligands_prepared 0.0000
2 O2 225.1066 161.1655 173.7963 O.3 778 ligands_prepared 0.0000
3 C3 225.8749 160.6997 174.8219 C.ar 778 ligands_prepared 0.0000
4 C4 225.7067 159.4864 175.4763 C.ar 778 ligands_prepared 0.0000
5 C5 226.5439 159.1572 176.5474 C.ar 778 ligands_prepared 0.0000
6 C6 227.4998 160.0836 176.9979 C.ar 778 ligands_prepared 0.0000
7 C7 227.6916 161.2909 176.3295 C.ar 778 ligands_prepared 0.0000
8 C8 226.8866 161.5904 175.2350 C.ar 778 ligands_prepared 0.0000
9 O9 227.1183 162.7763 174.6222 O.3 778 ligands_prepared 0.0000
10 C10 228.2778 159.7852 178.2458 C.3 778 ligands_prepared 0.0000
11 C11 227.2971 159.0780 179.2047 C.3 778 ligands_prepared 0.0000
12 C12 226.9287 157.7678 178.5562 C.ar 778 ligands_prepared 0.0000
13 C13 227.0549 156.5316 179.1754 C.ar 778 ligands_prepared 0.0000
14 C14 226.6246 155.3654 178.5319 C.ar 778 ligands_prepared 0.0000
15 C15 226.1243 155.4477 177.2407 C.ar 778 ligands_prepared 0.0000
16 O16 225.6843 154.4083 176.4946 O.3 778 ligands_prepared 0.0000
17 C17 225.6518 153.1307 177.1238 C.3 778 ligands_prepared 0.0000
18 C18 226.0727 156.6961 176.5734 C.ar 778 ligands_prepared 0.0000
19 O19 225.5507 156.7509 175.3097 O.3 778 ligands_prepared 0.0000
20 C20 226.5577 156.8057 174.2968 C.3 778 ligands_prepared 0.0000
21 C21 226.4763 157.8592 177.2203 C.ar 778 ligands_prepared 0.0000
22 C22 227.6926 156.4184 180.5183 C.3 778 ligands_prepared 0.0000
23 C23 227.3806 157.5841 181.2186 C.3 778 ligands_prepared 0.0000
24 N24 227.7967 158.9195 180.6405 N.4 778 ligands_prepared 1.0000
25 C25 229.3023 158.9891 180.6704 C.3 778 ligands_prepared 0.0000
26 C26 227.2733 160.0670 181.4546 C.3 778 ligands_prepared 0.0000
27 H27 223.6990 160.8472 172.4494 H 778 ligands_prepared 0.0000
28 H28 224.4679 159.3251 173.0429 H 778 ligands_prepared 0.0000
29 H29 223.2824 160.2060 174.0839 H 778 ligands_prepared 0.0000
30 H30 224.9222 158.7930 175.1627 H 778 ligands_prepared 0.0000
31 H31 228.4516 162.0021 176.6557 H 778 ligands_prepared 0.0000
32 H32 227.9029 162.7260 174.0037 H 778 ligands_prepared 0.0000
33 H33 229.1609 159.1462 178.0220 H 778 ligands_prepared 0.0000
34 H34 228.6939 160.7205 178.6759 H 778 ligands_prepared 0.0000
35 H35 226.3625 159.7219 179.2732 H 778 ligands_prepared 0.0000
36 H36 226.7018 154.4081 179.0482 H 778 ligands_prepared 0.0000
37 H37 226.6573 152.8034 177.4102 H 778 ligands_prepared 0.0000
38 H38 225.2533 152.4899 176.3233 H 778 ligands_prepared 0.0000
39 H39 224.9791 153.1321 177.9879 H 778 ligands_prepared 0.0000
40 H40 225.9655 156.8623 173.3732 H 778 ligands_prepared 0.0000
41 H41 227.1777 157.6997 174.4176 H 778 ligands_prepared 0.0000
42 H42 227.1724 155.9007 174.3127 H 778 ligands_prepared 0.0000
43 H43 228.7913 156.2327 180.4263 H 778 ligands_prepared 0.0000
44 H44 227.3235 155.5139 181.0556 H 778 ligands_prepared 0.0000
45 H45 227.8337 157.4751 182.2335 H 778 ligands_prepared 0.0000
46 H46 226.2740 157.5743 181.3685 H 778 ligands_prepared 0.0000
47 H47 229.7603 158.0884 180.2213 H 778 ligands_prepared 0.0000
48 H48 229.6716 159.8706 180.1155 H 778 ligands_prepared 0.0000
49 H49 229.6751 159.0715 181.7094 H 778 ligands_prepared 0.0000
50 H50 226.1761 160.1729 181.3601 H 778 ligands_prepared 0.0000
51 H51 227.7176 161.0244 181.1177 H 778 ligands_prepared 0.0000
52 H52 227.5263 159.9512 182.5256 H 778 ligands_prepared 0.0000
@<TRIPOS>BOND
      1     1     2    1
      2     1    27    1
      3     1    28    1
      4     1    29    1
      5     2     3    1
      6     3     4   ar
      7     3     8   ar
      8     4     5   ar
      9     4    30    1
     10     5     6   ar
     11     5    21    1
     12     6     7   ar
     13     6    10    1
     14     7     8   ar
     15     7    31    1
     16     8     9    1
     17     9    32    1
     18    10    11    1
     19    10    33    1
     20    10    34    1
     21    11    12    1
     22    11    24    1
     23    11    35    1
     24    12    13   ar
     25    12    21   ar
     26    13    14   ar
     27    13    22    1
     28    14    15   ar
     29    14    36    1
     30    15    16    1
     31    15    18   ar
     32    16    17    1
     33    17    37    1
     34    17    38    1
     35    17    39    1
     36    18    19    1
     37    18    21   ar
     38    19    20    1
     39    20    40    1
     40    20    41    1
     41    20    42    1
     42    22    23    1
     43    22    43    1
     44    22    44    1
     45    23    24    1
     46    23    45    1
     47    23    46    1
     48    24    25    1
     49    24    26    1
     50    25    47    1
     51    25    48    1
     52    25    49    1
     53    26    50    1
     54    26    51    1
     55    26    52    1
@<TRIPOS>MOLECULE
CHEMBL113076_LIG
27 27 1 0 0
SMALL
USER_CHARGES

@<TRIPOS>ATOM
1 C1 216.1071 152.2034 172.7224 C.3 778 ligands_prepared 0.0000
2 N2 216.9801 151.3028 173.5434 N.4 778 ligands_prepared 1.0000
3 C3 218.3760 151.3109 172.9942 C.3 778 ligands_prepared 0.0000
4 C4 217.0098 151.7501 174.9888 C.3 778 ligands_prepared 0.0000
5 C5 217.4357 153.2110 175.1067 C.3 778 ligands_prepared 0.0000
6 O6 217.6219 153.3797 176.5188 O.3 778 ligands_prepared 0.0000
7 C7 218.8691 153.2079 177.0088 C.ar 778 ligands_prepared 0.0000
8 C8 219.9684 152.6857 176.3038 C.ar 778 ligands_prepared 0.0000
9 N9 221.1621 152.5099 176.8984 N.ar 778 ligands_prepared 0.0000
10 C10 221.3125 152.8392 178.1909 C.ar 778 ligands_prepared 0.0000
11 C11 220.2487 153.3747 178.9302 C.ar 778 ligands_prepared 0.0000
12 Cl12 220.4990 153.7793 180.5620 Cl 778 ligands_prepared 0.0000
13 C13 219.0058 153.5749 178.3564 C.ar 778 ligands_prepared 0.0000
14 H14 216.4678 153.2477 172.7325 H 778 ligands_prepared 0.0000
15 H15 215.0652 152.1976 173.0933 H 778 ligands_prepared 0.0000
16 H16 216.0798 151.8628 171.6687 H 778 ligands_prepared 0.0000
17 H17 216.5940 150.3195 173.5056 H 778 ligands_prepared 0.0000
18 H18 219.0309 150.6318 173.5732 H 778 ligands_prepared 0.0000
19 H19 218.3836 150.9590 171.9432 H 778 ligands_prepared 0.0000
20 H20 218.8198 152.3225 173.0199 H 778 ligands_prepared 0.0000
21 H21 217.6928 151.0993 175.5877 H 778 ligands_prepared 0.0000
22 H22 215.9884 151.6090 175.4296 H 778 ligands_prepared 0.0000
23 H23 218.3953 153.3856 174.5756 H 778 ligands_prepared 0.0000
24 H24 216.6759 153.9266 174.7411 H 778 ligands_prepared 0.0000
25 H25 219.9045 152.4000 175.2457 H 778 ligands_prepared 0.0000
26 H26 222.3071 152.6663 178.6301 H 778 ligands_prepared 0.0000
27 H27 218.1558 153.9946 178.9018 H 778 ligands_prepared 0.0000
@<TRIPOS>BOND
      1     1     2    1
      2     1    14    1
      3     1    15    1
      4     1    16    1
      5     2     3    1
      6     2     4    1
      7     2    17    1
      8     3    18    1
      9     3    19    1
     10     3    20    1
     11     4     5    1
     12     4    21    1
     13     4    22    1
     14     5     6    1
     15     5    23    1
     16     5    24    1
     17     6     7    1
     18     7     8   ar
     19     7    13   ar
     20     8     9   ar
     21     8    25    1
     22     9    10   ar
     23    10    11   ar
     24    10    26    1
     25    11    12    1
     26    11    13   ar
     27    13    27    1
@<TRIPOS>MOLECULE
CHEMBL1162395_LIG
40 42 1 0 0
SMALL
USER_CHARGES

@<TRIPOS>ATOM
1 C1 228.7561 154.4088 175.5209 C.3 778 ligands_prepared 0.0000
2 O2 227.7354 155.0117 176.3116 O.3 778 ligands_prepared 0.0000
3 C3 226.6090 154.2985 176.5292 C.ar 778 ligands_prepared 0.0000
4 C4 226.5288 152.9097 176.5952 C.ar 778 ligands_prepared 0.0000
5 C5 225.2676 152.3518 176.8190 C.ar 778 ligands_prepared 0.0000
6 O6 225.0922 151.0133 176.9073 O.3 778 ligands_prepared 0.0000
7 C7 224.1107 153.1228 176.9646 C.ar 778 ligands_prepared 0.0000
8 C8 224.2269 154.5095 176.8980 C.ar 778 ligands_prepared 0.0000
9 C9 225.4637 155.1100 176.6884 C.ar 778 ligands_prepared 0.0000
10 C10 225.6207 156.5617 176.6457 C.2 778 ligands_prepared 0.0000
11 C11 226.4494 157.2179 177.4720 C.2 778 ligands_prepared 0.0000
12 C12 227.2002 156.5209 178.5650 C.3 778 ligands_prepared 0.0000
13 C13 228.0816 157.4618 179.3929 C.3 778 ligands_prepared 0.0000
14 C14 227.3726 158.8085 179.6170 C.3 778 ligands_prepared 0.0000
15 N15 227.0172 159.4373 178.3492 N.2 778 ligands_prepared 0.0000
16 C16 226.6277 158.6828 177.3764 C.2 778 ligands_prepared 0.0000
17 C17 226.3684 159.3108 176.0675 C.ar 778 ligands_prepared 0.0000
18 C18 226.8074 158.6883 174.8944 C.ar 778 ligands_prepared 0.0000
19 C19 226.5557 159.3003 173.6711 C.ar 778 ligands_prepared 0.0000
20 C20 225.8754 160.5240 173.6596 C.ar 778 ligands_prepared 0.0000
21 N21 225.4503 161.1291 174.7876 N.ar 778 ligands_prepared 0.0000
22 C22 225.6923 160.5341 175.9717 C.ar 778 ligands_prepared 0.0000
23 H23 229.1434 153.5070 176.0050 H 778 ligands_prepared 0.0000
24 H24 229.5244 155.1953 175.4988 H 778 ligands_prepared 0.0000
25 H25 228.3984 154.1953 174.5089 H 778 ligands_prepared 0.0000
26 H26 227.4031 152.2774 176.4850 H 778 ligands_prepared 0.0000
27 H27 224.3299 150.6825 176.3520 H 778 ligands_prepared 0.0000
28 H28 223.1505 152.6448 177.1313 H 778 ligands_prepared 0.0000
29 H29 223.3363 155.1341 177.0171 H 778 ligands_prepared 0.0000
30 H30 225.0326 157.0697 175.8765 H 778 ligands_prepared 0.0000
31 H31 227.8232 155.7081 178.1314 H 778 ligands_prepared 0.0000
32 H32 226.4757 156.0005 179.2300 H 778 ligands_prepared 0.0000
33 H33 229.0484 157.6309 178.8792 H 778 ligands_prepared 0.0000
34 H34 228.3364 156.9953 180.3630 H 778 ligands_prepared 0.0000
35 H35 226.4615 158.6744 180.2458 H 778 ligands_prepared 0.0000
36 H36 228.0326 159.5169 180.1681 H 778 ligands_prepared 0.0000
37 H37 227.3379 157.7318 174.9397 H 778 ligands_prepared 0.0000
38 H38 226.8796 158.8399 172.7372 H 778 ligands_prepared 0.0000
39 H39 225.6560 161.0477 172.7192 H 778 ligands_prepared 0.0000
40 H40 225.3255 161.0573 176.8659 H 778 ligands_prepared 0.0000
@<TRIPOS>BOND
      1     1     2    1
      2     1    23    1
      3     1    24    1
      4     1    25    1
      5     2     3    1
      6     3     4   ar
      7     3     9   ar
      8     4     5   ar
      9     4    26    1
     10     5     6    1
     11     5     7   ar
     12     6    27    1
     13     7     8   ar
     14     7    28    1
     15     8     9   ar
     16     8    29    1
     17     9    10    1
     18    10    11    2
     19    10    30    1
     20    11    12    1
     21    11    16    1
     22    12    13    1
     23    12    31    1
     24    12    32    1
     25    13    14    1
     26    13    33    1
     27    13    34    1
     28    14    15    1
     29    14    35    1
     30    14    36    1
     31    15    16    2
     32    16    17    1
     33    17    18   ar
     34    17    22   ar
     35    18    19   ar
     36    18    37    1
     37    19    20   ar
     38    19    38    1
     39    20    21   ar
     40    20    39    1
     41    21    22   ar
     42    22    40    1
@<TRIPOS>MOLECULE
CHEMBL1257896_LIG
48 51 1 0 0
SMALL
USER_CHARGES

@<TRIPOS>ATOM
1 O1 222.2404 152.8544 176.3871 O.2 778 ligands_prepared 0.0000
2 C2 222.2877 153.3695 177.4977 C.2 778 ligands_prepared 0.0000
3 N3 223.4311 154.0198 177.9007 N.am 778 ligands_prepared 0.0000
4 C4 224.4981 154.2826 176.9420 C.3 778 ligands_prepared 0.0000
5 C5 224.9863 152.9825 176.2542 C.3 778 ligands_prepared 0.0000
6 C6 225.7901 152.1220 177.2384 C.3 778 ligands_prepared 0.0000
7 C7 227.0613 152.8741 177.6599 C.3 778 ligands_prepared 0.0000
8 N8 227.0007 154.3093 177.1686 N.4 778 ligands_prepared 1.0000
9 C9 227.0192 154.3138 175.6524 C.3 778 ligands_prepared 0.0000
10 C10 225.9085 153.4067 175.1015 C.3 778 ligands_prepared 0.0000
11 C11 225.7103 154.9303 177.6929 C.3 778 ligands_prepared 0.0000
12 C12 225.7489 156.4554 177.5356 C.3 778 ligands_prepared 0.0000
13 C13 226.5948 157.0622 178.6074 C.ar 778 ligands_prepared 0.0000
14 C14 227.1002 156.2891 179.6552 C.ar 778 ligands_prepared 0.0000
15 C15 227.8736 156.8969 180.6409 C.ar 778 ligands_prepared 0.0000
16 C16 228.1393 158.2662 180.5355 C.ar 778 ligands_prepared 0.0000
17 N17 227.6738 159.0175 179.5175 N.ar 778 ligands_prepared 0.0000
18 C18 226.9046 158.4328 178.5805 C.ar 778 ligands_prepared 0.0000
19 C19 221.1303 153.3455 178.4220 C.ar 778 ligands_prepared 0.0000
20 C20 219.8778 153.0393 177.8855 C.ar 778 ligands_prepared 0.0000
21 C21 218.7471 153.0954 178.6967 C.ar 778 ligands_prepared 0.0000
22 C22 218.8696 153.4604 180.0372 C.ar 778 ligands_prepared 0.0000
23 C23 220.1216 153.7643 180.5698 C.ar 778 ligands_prepared 0.0000
24 C24 221.2562 153.7083 179.7639 C.ar 778 ligands_prepared 0.0000
25 H25 223.5346 154.4074 178.8351 H 778 ligands_prepared 0.0000
26 H26 224.1192 154.9946 176.1527 H 778 ligands_prepared 0.0000
27 H27 224.1119 152.4090 175.8658 H 778 ligands_prepared 0.0000
28 H28 226.0532 151.1512 176.7723 H 778 ligands_prepared 0.0000
29 H29 225.1786 151.8519 178.1223 H 778 ligands_prepared 0.0000
30 H30 227.1902 152.8751 178.7669 H 778 ligands_prepared 0.0000
31 H31 227.9775 152.3951 177.2465 H 778 ligands_prepared 0.0000
32 H32 227.8311 154.8487 177.5358 H 778 ligands_prepared 0.0000
33 H33 226.9103 155.3627 175.2923 H 778 ligands_prepared 0.0000
34 H34 228.0238 153.9769 175.3097 H 778 ligands_prepared 0.0000
35 H35 226.3390 152.5119 174.6079 H 778 ligands_prepared 0.0000
36 H36 225.3403 153.9270 174.3039 H 778 ligands_prepared 0.0000
37 H37 225.6563 154.6780 178.7903 H 778 ligands_prepared 0.0000
38 H38 226.1594 156.7366 176.5340 H 778 ligands_prepared 0.0000
39 H39 224.7217 156.8858 177.5400 H 778 ligands_prepared 0.0000
40 H40 226.8916 155.2169 179.7031 H 778 ligands_prepared 0.0000
41 H41 228.2651 156.3182 181.4772 H 778 ligands_prepared 0.0000
42 H42 228.7510 158.7899 181.2828 H 778 ligands_prepared 0.0000
43 H43 226.5271 159.0877 177.7841 H 778 ligands_prepared 0.0000
44 H44 219.7914 152.7700 176.8299 H 778 ligands_prepared 0.0000
45 H45 217.7660 152.8602 178.2815 H 778 ligands_prepared 0.0000
46 H46 217.9826 153.5111 180.6727 H 778 ligands_prepared 0.0000
47 H47 220.2167 154.0538 181.6183 H 778 ligands_prepared 0.0000
48 H48 222.2279 153.9646 180.1888 H 778 ligands_prepared 0.0000
@<TRIPOS>BOND
      1     1     2    2
      2     2     3   am
      3     2    19    1
      4     3     4    1
      5     3    25    1
      6     4     5    1
      7     4    11    1
      8     4    26    1
      9     5     6    1
     10     5    10    1
     11     5    27    1
     12     6     7    1
     13     6    28    1
     14     6    29    1
     15     7     8    1
     16     7    30    1
     17     7    31    1
     18     8     9    1
     19     8    11    1
     20     8    32    1
     21     9    10    1
     22     9    33    1
     23     9    34    1
     24    10    35    1
     25    10    36    1
     26    11    12    1
     27    11    37    1
     28    12    13    1
     29    12    38    1
     30    12    39    1
     31    13    14   ar
     32    13    18   ar
     33    14    15   ar
     34    14    40    1
     35    15    16   ar
     36    15    41    1
     37    16    17   ar
     38    16    42    1
     39    17    18   ar
     40    18    43    1
     41    19    20   ar
     42    19    24   ar
     43    20    21   ar
     44    20    44    1
     45    21    22   ar
     46    21    45    1
     47    22    23   ar
     48    22    46    1
     49    23    24   ar
     50    23    47    1
     51    24    48    1
@<TRIPOS>MOLECULE
CHEMBL1258005_LIG
48 51 1 0 0
SMALL
USER_CHARGES

@<TRIPOS>ATOM
1 O1 226.0300 161.9380 172.9373 O.2 778 ligands_prepared 0.0000
2 C2 225.0741 161.1798 172.9859 C.2 778 ligands_prepared 0.0000
3 N3 225.1301 160.0075 173.6850 N.am 778 ligands_prepared 0.0000
4 C4 226.3435 159.6130 174.3981 C.3 778 ligands_prepared 0.0000
5 C5 227.5799 159.7209 173.4711 C.3 778 ligands_prepared 0.0000
6 C6 228.8208 159.4201 174.3212 C.3 778 ligands_prepared 0.0000
7 C7 228.7050 158.0075 174.9113 C.3 778 ligands_prepared 0.0000
8 N8 227.4258 157.3385 174.4424 N.4 778 ligands_prepared 1.0000
9 C9 227.4318 157.2724 172.9248 C.3 778 ligands_prepared 0.0000
10 C10 227.5005 158.6907 172.3365 C.3 778 ligands_prepared 0.0000
11 C11 226.1966 158.1299 174.8786 C.3 778 ligands_prepared 0.0000
12 C12 226.0003 158.0391 176.3944 C.3 778 ligands_prepared 0.0000
13 C13 225.7937 156.6261 176.8261 C.ar 778 ligands_prepared 0.0000
14 C14 226.5728 156.0502 177.8322 C.ar 778 ligands_prepared 0.0000
15 C15 226.3410 154.7258 178.1986 C.ar 778 ligands_prepared 0.0000
16 C16 225.3308 154.0136 177.5460 C.ar 778 ligands_prepared 0.0000
17 N17 224.5685 154.5651 176.5776 N.ar 778 ligands_prepared 0.0000
18 C18 224.7957 155.8444 176.2263 C.ar 778 ligands_prepared 0.0000
19 C19 223.7786 161.4534 172.3004 C.ar 778 ligands_prepared 0.0000
20 C20 222.6017 160.9457 172.8560 C.ar 778 ligands_prepared 0.0000
21 C21 221.3840 161.2017 172.2331 C.ar 778 ligands_prepared 0.0000
22 C22 221.3807 161.9613 171.0643 C.ar 778 ligands_prepared 0.0000
23 Br23 219.7119 162.3165 170.2251 Br 778 ligands_prepared 0.0000
24 C24 222.5453 162.4601 170.4911 C.ar 778 ligands_prepared 0.0000
25 C25 223.7610 162.2018 171.1221 C.ar 778 ligands_prepared 0.0000
26 H26 224.3302 159.3738 173.7416 H 778 ligands_prepared 0.0000
27 H27 226.4869 160.2912 175.2882 H 778 ligands_prepared 0.0000
28 H28 227.6415 160.7529 173.0471 H 778 ligands_prepared 0.0000
29 H29 229.7373 159.5090 173.7013 H 778 ligands_prepared 0.0000
30 H30 228.9468 160.1738 175.1255 H 778 ligands_prepared 0.0000
31 H31 229.5662 157.3659 174.6018 H 778 ligands_prepared 0.0000
32 H32 228.7237 158.0261 176.0243 H 778 ligands_prepared 0.0000
33 H33 227.3695 156.3671 174.8428 H 778 ligands_prepared 0.0000
34 H34 228.3007 156.6524 172.6015 H 778 ligands_prepared 0.0000
35 H35 226.5194 156.7301 172.5828 H 778 ligands_prepared 0.0000
36 H36 226.6367 158.8837 171.6700 H 778 ligands_prepared 0.0000
37 H37 228.3862 158.7912 171.6739 H 778 ligands_prepared 0.0000
38 H38 225.3093 157.6593 174.3666 H 778 ligands_prepared 0.0000
39 H39 226.8389 158.5190 176.9493 H 778 ligands_prepared 0.0000
40 H40 225.1181 158.6703 176.6828 H 778 ligands_prepared 0.0000
41 H41 227.3526 156.6293 178.3339 H 778 ligands_prepared 0.0000
42 H42 226.9344 154.2529 178.9829 H 778 ligands_prepared 0.0000
43 H43 225.1095 152.9655 177.7981 H 778 ligands_prepared 0.0000
44 H44 224.1483 156.2517 175.4356 H 778 ligands_prepared 0.0000
45 H45 222.6310 160.3497 173.7756 H 778 ligands_prepared 0.0000
46 H46 220.4611 160.8066 172.6697 H 778 ligands_prepared 0.0000
47 H47 222.5325 163.0473 169.5663 H 778 ligands_prepared 0.0000
48 H48 224.6912 162.5862 170.6893 H 778 ligands_prepared 0.0000
@<TRIPOS>BOND
      1     1     2    2
      2     2     3   am
      3     2    19    1
      4     3     4    1
      5     3    26    1
      6     4     5    1
      7     4    11    1
      8     4    27    1
      9     5     6    1
     10     5    10    1
     11     5    28    1
     12     6     7    1
     13     6    29    1
     14     6    30    1
     15     7     8    1
     16     7    31    1
     17     7    32    1
     18     8     9    1
     19     8    11    1
     20     8    33    1
     21     9    10    1
     22     9    34    1
     23     9    35    1
     24    10    36    1
     25    10    37    1
     26    11    12    1
     27    11    38    1
     28    12    13    1
     29    12    39    1
     30    12    40    1
     31    13    14   ar
     32    13    18   ar
     33    14    15   ar
     34    14    41    1
     35    15    16   ar
     36    15    42    1
     37    16    17   ar
     38    16    43    1
     39    17    18   ar
     40    18    44    1
     41    19    20   ar
     42    19    25   ar
     43    20    21   ar
     44    20    45    1
     45    21    22   ar
     46    21    46    1
     47    22    23    1
     48    22    24   ar
     49    24    25   ar
     50    24    47    1
     51    25    48    1
@<TRIPOS>MOLECULE
CHEMBL1258006_LIG
51 55 1 0 0
SMALL
USER_CHARGES

@<TRIPOS>ATOM
1 O1 224.7792 151.1167 176.8991 O.2 778 ligands_prepared 0.0000
2 C2 224.0604 152.0812 177.1185 C.2 778 ligands_prepared 0.0000
3 N3 222.7372 151.9449 177.4405 N.am 778 ligands_prepared 0.0000
4 C4 221.8927 153.1138 177.6578 C.3 778 ligands_prepared 0.0000
5 C5 221.7584 153.4252 179.1733 C.3 778 ligands_prepared 0.0000
6 C6 220.8676 152.3746 179.8522 C.3 778 ligands_prepared 0.0000
7 C7 219.4401 152.4723 179.2931 C.3 778 ligands_prepared 0.0000
8 N8 219.4313 153.3638 178.0640 N.4 778 ligands_prepared 1.0000
9 C9 219.7741 154.7803 178.4854 C.3 778 ligands_prepared 0.0000
10 C10 221.0781 154.7954 179.2971 C.3 778 ligands_prepared 0.0000
11 C11 220.4687 152.8220 177.0858 C.3 778 ligands_prepared 0.0000
12 C12 220.2672 153.4248 175.6902 C.3 778 ligands_prepared 0.0000
13 C13 219.0805 152.8007 175.0339 C.ar 778 ligands_prepared 0.0000
14 C14 217.7841 153.1000 175.4627 C.ar 778 ligands_prepared 0.0000
15 C15 216.7008 152.4947 174.8308 C.ar 778 ligands_prepared 0.0000
16 C16 216.9473 151.6178 173.7691 C.ar 778 ligands_prepared 0.0000
17 N17 218.1948 151.3273 173.3450 N.ar 778 ligands_prepared 0.0000
18 C18 219.2411 151.8987 173.9700 C.ar 778 ligands_prepared 0.0000
19 C19 224.5387 153.4724 177.0673 C.2 778 ligands_prepared 0.0000
20 C20 224.3151 154.5258 176.2364 C.2 778 ligands_prepared 0.0000
21 C21 225.1218 155.6141 176.7440 C.ar 778 ligands_prepared 0.0000
22 C22 225.3703 156.9333 176.3684 C.ar 778 ligands_prepared 0.0000
23 C23 226.2710 157.6692 177.1304 C.ar 778 ligands_prepared 0.0000
24 C24 226.9230 157.1178 178.2489 C.ar 778 ligands_prepared 0.0000
25 C25 226.6940 155.8074 178.6496 C.ar 778 ligands_prepared 0.0000
26 C26 225.7901 155.0917 177.8811 C.ar 778 ligands_prepared 0.0000
27 O27 225.4308 153.7758 178.0991 O.3 778 ligands_prepared 0.0000
28 H28 222.3066 151.0281 177.5647 H 778 ligands_prepared 0.0000
29 H29 222.3406 154.0071 177.1346 H 778 ligands_prepared 0.0000
30 H30 222.7683 153.4424 179.6462 H 778 ligands_prepared 0.0000
31 H31 220.8606 152.5309 180.9502 H 778 ligands_prepared 0.0000
32 H32 221.2786 151.3541 179.7178 H 778 ligands_prepared 0.0000
33 H33 218.7323 152.8928 180.0444 H 778 ligands_prepared 0.0000
34 H34 219.0374 151.4714 179.0150 H 778 ligands_prepared 0.0000
35 H35 218.4766 153.3491 177.6165 H 778 ligands_prepared 0.0000
36 H36 218.9233 155.1877 179.0803 H 778 ligands_prepared 0.0000
37 H37 219.8505 155.4188 177.5764 H 778 ligands_prepared 0.0000
38 H38 220.8749 155.0234 180.3638 H 778 ligands_prepared 0.0000
39 H39 221.7452 155.6109 178.9543 H 778 ligands_prepared 0.0000
40 H40 220.3017 151.7062 177.0249 H 778 ligands_prepared 0.0000
41 H41 220.1202 154.5295 175.7607 H 778 ligands_prepared 0.0000
42 H42 221.1822 153.3128 175.0666 H 778 ligands_prepared 0.0000
43 H43 217.6201 153.8004 176.2849 H 778 ligands_prepared 0.0000
44 H44 215.6808 152.7012 175.1548 H 778 ligands_prepared 0.0000
45 H45 216.1268 151.1243 173.2318 H 778 ligands_prepared 0.0000
46 H46 220.2383 151.6150 173.6049 H 778 ligands_prepared 0.0000
47 H47 223.6778 154.5723 175.3682 H 778 ligands_prepared 0.0000
48 H48 224.8752 157.3646 175.4985 H 778 ligands_prepared 0.0000
49 H49 226.4843 158.7042 176.8550 H 778 ligands_prepared 0.0000
50 H50 227.6258 157.7388 178.8111 H 778 ligands_prepared 0.0000
51 H51 227.1959 155.3623 179.5064 H 778 ligands_prepared 0.0000
@<TRIPOS>BOND
      1     1     2    2
      2     2     3   am
      3     2    19    1
      4     3     4    1
      5     3    28    1
      6     4     5    1
      7     4    11    1
      8     4    29    1
      9     5     6    1
     10     5    10    1
     11     5    30    1
     12     6     7    1
     13     6    31    1
     14     6    32    1
     15     7     8    1
     16     7    33    1
     17     7    34    1
     18     8     9    1
     19     8    11    1
     20     8    35    1
     21     9    10    1
     22     9    36    1
     23     9    37    1
     24    10    38    1
     25    10    39    1
     26    11    12    1
     27    11    40    1
     28    12    13    1
     29    12    41    1
     30    12    42    1
     31    13    14   ar
     32    13    18   ar
     33    14    15   ar
     34    14    43    1
     35    15    16   ar
     36    15    44    1
     37    16    17   ar
     38    16    45    1
     39    17    18   ar
     40    18    46    1
     41    19    20    2
     42    19    27    1
     43    20    21    1
     44    20    47    1
     45    21    22   ar
     46    21    26   ar
     47    22    23   ar
     48    22    48    1
     49    23    24   ar
     50    23    49    1
     51    24    25   ar
     52    24    50    1
     53    25    26   ar
     54    25    51    1
     55    26    27    1
@<TRIPOS>MOLECULE
CHEMBL132966_LIG
27 27 1 0 0
SMALL
USER_CHARGES

@<TRIPOS>ATOM
1 C1 218.4277 151.0006 173.2981 C.3 778 ligands_prepared 0.0000
2 N2 217.3011 150.7314 174.2497 N.4 778 ligands_prepared 1.0000
3 C3 216.4166 151.9524 174.3742 C.3 778 ligands_prepared 0.0000
4 C4 217.2870 153.1862 174.6247 C.3 778 ligands_prepared 0.0000
5 C5 217.6935 153.2220 176.0616 C.2 778 ligands_prepared 0.0000
6 C6 218.9779 153.2457 176.4381 C.2 778 ligands_prepared 0.0000
7 C7 219.4144 153.3329 177.8235 C.ar 778 ligands_prepared 0.0000
8 C8 220.7839 153.3501 178.1180 C.ar 778 ligands_prepared 0.0000
9 C9 221.1982 153.4515 179.4421 C.ar 778 ligands_prepared 0.0000
10 C10 220.2247 153.5219 180.4458 C.ar 778 ligands_prepared 0.0000
11 N11 218.9039 153.4947 180.1766 N.ar 778 ligands_prepared 0.0000
12 C12 218.5063 153.4018 178.8931 C.ar 778 ligands_prepared 0.0000
13 H13 218.0505 151.2439 172.2882 H 778 ligands_prepared 0.0000
14 H14 219.0743 150.1063 173.2094 H 778 ligands_prepared 0.0000
15 H15 219.0571 151.8392 173.6498 H 778 ligands_prepared 0.0000
16 H16 217.6802 150.4685 175.1869 H 778 ligands_prepared 0.0000
17 H17 216.7401 149.9138 173.9154 H 778 ligands_prepared 0.0000
18 H18 215.6932 151.7990 175.2110 H 778 ligands_prepared 0.0000
19 H19 215.8124 152.0675 173.4437 H 778 ligands_prepared 0.0000
20 H20 218.1699 153.1883 173.9467 H 778 ligands_prepared 0.0000
21 H21 216.7332 154.1214 174.3731 H 778 ligands_prepared 0.0000
22 H22 216.8665 153.2471 176.7755 H 778 ligands_prepared 0.0000
23 H23 219.7847 153.2228 175.6961 H 778 ligands_prepared 0.0000
24 H24 221.5182 153.2904 177.3098 H 778 ligands_prepared 0.0000
25 H25 222.2586 153.4761 179.6951 H 778 ligands_prepared 0.0000
26 H26 220.5006 153.6037 181.5069 H 778 ligands_prepared 0.0000
27 H27 217.4221 153.3785 178.7233 H 778 ligands_prepared 0.0000
@<TRIPOS>BOND
      1     1     2    1
      2     1    13    1
      3     1    14    1
      4     1    15    1
      5     2     3    1
      6     2    16    1
      7     2    17    1
      8     3     4    1
      9     3    18    1
     10     3    19    1
     11     4     5    1
     12     4    20    1
     13     4    21    1
     14     5     6    2
     15     5    22    1
     16     6     7    1
     17     6    23    1
     18     7     8   ar
     19     7    12   ar
     20     8     9   ar
     21     8    24    1
     22     9    10   ar
     23     9    25    1
     24    10    11   ar
     25    10    26    1
     26    11    12   ar
     27    12    27    1
@<TRIPOS>MOLECULE
CHEMBL134713_LIG
43 45 1 0 0
SMALL
USER_CHARGES

@<TRIPOS>ATOM
1 C1 226.8870 163.4940 174.0678 C.3 778 ligands_prepared 0.0000
2 O2 226.8314 162.1861 173.5072 O.3 778 ligands_prepared 0.0000
3 C3 226.6329 161.1454 174.3532 C.ar 778 ligands_prepared 0.0000
4 C4 226.2953 161.2558 175.7022 C.ar 778 ligands_prepared 0.0000
5 C5 226.1149 160.0904 176.4454 C.ar 778 ligands_prepared 0.0000
6 C6 226.2720 158.8353 175.8654 C.ar 778 ligands_prepared 0.0000
7 C7 226.0858 157.6099 176.6318 C.2 778 ligands_prepared 0.0000
8 C8 226.8031 157.2952 177.7197 C.2 778 ligands_prepared 0.0000
9 C9 227.8345 158.1867 178.3357 C.3 778 ligands_prepared 0.0000
10 C10 227.6138 158.2389 179.8524 C.3 778 ligands_prepared 0.0000
11 C11 227.6632 156.8211 180.4441 C.3 778 ligands_prepared 0.0000
12 N12 226.9713 155.8046 179.6696 N.2 778 ligands_prepared 0.0000
13 C13 226.6029 156.0246 178.4544 C.2 778 ligands_prepared 0.0000
14 C14 225.9577 154.9149 177.7243 C.ar 778 ligands_prepared 0.0000
15 C15 224.6479 154.5253 178.0035 C.ar 778 ligands_prepared 0.0000
16 C16 224.0870 153.4782 177.2749 C.ar 778 ligands_prepared 0.0000
17 C17 224.8604 152.8494 176.2945 C.ar 778 ligands_prepared 0.0000
18 N18 226.1329 153.2156 176.0288 N.ar 778 ligands_prepared 0.0000
19 C19 226.6719 154.2302 176.7278 C.ar 778 ligands_prepared 0.0000
20 C20 226.6240 158.7601 174.4982 C.ar 778 ligands_prepared 0.0000
21 O21 226.7513 157.4897 174.0533 O.3 778 ligands_prepared 0.0000
22 C22 227.1964 157.2988 172.7143 C.3 778 ligands_prepared 0.0000
23 C23 226.8018 159.9016 173.7261 C.ar 778 ligands_prepared 0.0000
24 H24 227.0639 164.1218 173.1828 H 778 ligands_prepared 0.0000
25 H25 227.7199 163.5840 174.7726 H 778 ligands_prepared 0.0000
26 H26 225.9359 163.7586 174.5417 H 778 ligands_prepared 0.0000
27 H27 226.1683 162.2237 176.1762 H 778 ligands_prepared 0.0000
28 H28 225.8451 160.1630 177.5035 H 778 ligands_prepared 0.0000
29 H29 225.2913 156.9553 176.2561 H 778 ligands_prepared 0.0000
30 H30 227.7949 159.2117 177.9129 H 778 ligands_prepared 0.0000
31 H31 228.8543 157.8133 178.1016 H 778 ligands_prepared 0.0000
32 H32 228.3744 158.8808 180.3337 H 778 ligands_prepared 0.0000
33 H33 226.6379 158.7127 180.0746 H 778 ligands_prepared 0.0000
34 H34 227.2266 156.8150 181.4714 H 778 ligands_prepared 0.0000
35 H35 228.7234 156.4880 180.5621 H 778 ligands_prepared 0.0000
36 H36 224.0726 155.0345 178.7807 H 778 ligands_prepared 0.0000
37 H37 223.0645 153.1528 177.4637 H 778 ligands_prepared 0.0000
38 H38 224.4627 152.0231 175.6912 H 778 ligands_prepared 0.0000
39 H39 227.7098 154.4968 176.4789 H 778 ligands_prepared 0.0000
40 H40 228.2116 157.6874 172.5782 H 778 ligands_prepared 0.0000
41 H41 227.1882 156.2032 172.6202 H 778 ligands_prepared 0.0000
42 H42 226.4998 157.7512 172.0016 H 778 ligands_prepared 0.0000
43 H43 227.0615 159.8562 172.6732 H 778 ligands_prepared 0.0000
@<TRIPOS>BOND
      1     1     2    1
      2     1    24    1
      3     1    25    1
      4     1    26    1
      5     2     3    1
      6     3     4   ar
      7     3    23   ar
      8     4     5   ar
      9     4    27    1
     10     5     6   ar
     11     5    28    1
     12     6     7    1
     13     6    20   ar
     14     7     8    2
     15     7    29    1
     16     8     9    1
     17     8    13    1
     18     9    10    1
     19     9    30    1
     20     9    31    1
     21    10    11    1
     22    10    32    1
     23    10    33    1
     24    11    12    1
     25    11    34    1
     26    11    35    1
     27    12    13    2
     28    13    14    1
     29    14    15   ar
     30    14    19   ar
     31    15    16   ar
     32    15    36    1
     33    16    17   ar
     34    16    37    1
     35    17    18   ar
     36    17    38    1
     37    18    19   ar
     38    19    39    1
     39    20    21    1
     40    20    23   ar
     41    21    22    1
     42    22    40    1
     43    22    41    1
     44    22    42    1
     45    23    43    1
@<TRIPOS>MOLECULE
CHEMBL1876219_LIG
34 34 1 0 0
SMALL
USER_CHARGES

@<TRIPOS>ATOM
1 C1 224.7754 152.9558 176.6052 C.3 778 ligands_prepared 0.0000
2 C2 223.6059 153.2948 177.5066 C.3 778 ligands_prepared 0.0000
3 O3 222.3867 152.7612 176.9766 O.3 778 ligands_prepared 0.0000
4 C4 221.2332 152.9924 177.6392 C.ar 778 ligands_prepared 0.0000
5 C5 221.0942 153.1920 179.0211 C.ar 778 ligands_prepared 0.0000
6 N6 219.8897 153.4269 179.5758 N.ar 778 ligands_prepared 0.0000
7 C7 218.8042 153.4808 178.7925 C.ar 778 ligands_prepared 0.0000
8 C8 218.8626 153.2939 177.3932 C.ar 778 ligands_prepared 0.0000
9 C9 217.6458 153.3977 176.5990 C.2 778 ligands_prepared 0.0000
10 C10 217.6383 153.3373 175.2611 C.2 778 ligands_prepared 0.0000
11 C11 216.3892 153.4827 174.4583 C.3 778 ligands_prepared 0.0000
12 C12 216.5066 152.6416 173.1840 C.3 778 ligands_prepared 0.0000
13 N13 217.0168 151.2612 173.5301 N.4 778 ligands_prepared 1.0000
14 C14 218.4977 151.1817 173.3077 C.3 778 ligands_prepared 0.0000
15 C15 220.1004 153.0430 176.8110 C.ar 778 ligands_prepared 0.0000
16 H16 224.9633 151.8771 176.5463 H 778 ligands_prepared 0.0000
17 H17 225.7003 153.4285 176.9660 H 778 ligands_prepared 0.0000
18 H18 224.6092 153.3083 175.5784 H 778 ligands_prepared 0.0000
19 H19 223.7471 152.9715 178.5525 H 778 ligands_prepared 0.0000
20 H20 223.3648 154.3792 177.4974 H 778 ligands_prepared 0.0000
21 H21 221.9485 153.1706 179.7084 H 778 ligands_prepared 0.0000
22 H22 217.8474 153.6784 179.2935 H 778 ligands_prepared 0.0000
23 H23 216.7215 153.5271 177.1718 H 778 ligands_prepared 0.0000
24 H24 218.5492 153.1818 174.6765 H 778 ligands_prepared 0.0000
25 H25 215.4868 153.1914 175.0396 H 778 ligands_prepared 0.0000
26 H26 216.2329 154.5609 174.2112 H 778 ligands_prepared 0.0000
27 H27 217.2056 153.1203 172.4567 H 778 ligands_prepared 0.0000
28 H28 215.5214 152.5498 172.6680 H 778 ligands_prepared 0.0000
29 H29 216.5290 150.5418 172.9484 H 778 ligands_prepared 0.0000
30 H30 216.7950 151.0365 174.5264 H 778 ligands_prepared 0.0000
31 H31 218.8689 150.1718 173.5681 H 778 ligands_prepared 0.0000
32 H32 219.0380 151.9135 173.9347 H 778 ligands_prepared 0.0000
33 H33 218.7542 151.3728 172.2493 H 778 ligands_prepared 0.0000
34 H34 220.2009 152.8975 175.7349 H 778 ligands_prepared 0.0000
@<TRIPOS>BOND
      1     1     2    1
      2     1    16    1
      3     1    17    1
      4     1    18    1
      5     2     3    1
      6     2    19    1
      7     2    20    1
      8     3     4    1
      9     4     5   ar
     10     4    15   ar
     11     5     6   ar
     12     5    21    1
     13     6     7   ar
     14     7     8   ar
     15     7    22    1
     16     8     9    1
     17     8    15   ar
     18     9    10    2
     19     9    23    1
     20    10    11    1
     21    10    24    1
     22    11    12    1
     23    11    25    1
     24    11    26    1
     25    12    13    1
     26    12    27    1
     27    12    28    1
     28    13    14    1
     29    13    29    1
     30    13    30    1
     31    14    31    1
     32    14    32    1
     33    14    33    1
     34    15    34    1
@<TRIPOS>MOLECULE
CHEMBL194082_LIG
51 55 1 0 0
SMALL
USER_CHARGES

@<TRIPOS>ATOM
1 O1 224.5923 151.2210 176.7851 O.2 778 ligands_prepared 0.0000
2 C2 223.9244 152.2108 177.0557 C.2 778 ligands_prepared 0.0000
3 N3 222.6136 152.1122 177.4363 N.am 778 ligands_prepared 0.0000
4 C4 221.8615 153.3170 177.7770 C.3 778 ligands_prepared 0.0000
5 C5 221.6507 153.4010 179.3138 C.3 778 ligands_prepared 0.0000
6 C6 220.6942 152.2943 179.7697 C.3 778 ligands_prepared 0.0000
7 C7 219.3196 152.5184 179.1268 C.3 778 ligands_prepared 0.0000
8 N8 219.3869 153.6483 178.1192 N.4 778 ligands_prepared 1.0000
9 C9 219.7239 154.9372 178.8467 C.3 778 ligands_prepared 0.0000
10 C10 221.0401 154.7752 179.6217 C.3 778 ligands_prepared 0.0000
11 C11 220.4679 153.3989 177.0657 C.3 778 ligands_prepared 0.0000
12 C12 220.0610 152.2033 176.1988 C.3 778 ligands_prepared 0.0000
13 C13 218.9460 152.5123 175.2548 C.ar 778 ligands_prepared 0.0000
14 C14 217.7491 153.1049 175.6637 C.ar 778 ligands_prepared 0.0000
15 C15 216.7663 153.3819 174.7182 C.ar 778 ligands_prepared 0.0000
16 C16 216.9989 153.0384 173.3825 C.ar 778 ligands_prepared 0.0000
17 N17 218.1375 152.4374 172.9815 N.ar 778 ligands_prepared 0.0000
18 C18 219.0903 152.1824 173.8955 C.ar 778 ligands_prepared 0.0000
19 C19 224.4938 153.5656 177.0067 C.2 778 ligands_prepared 0.0000
20 C20 224.3295 154.6573 176.2082 C.2 778 ligands_prepared 0.0000
21 C21 225.1461 155.7016 176.7823 C.ar 778 ligands_prepared 0.0000
22 C22 225.4067 157.0367 176.4732 C.ar 778 ligands_prepared 0.0000
23 C23 226.2801 157.7341 177.2980 C.ar 778 ligands_prepared 0.0000
24 C24 226.9008 157.1250 178.4041 C.ar 778 ligands_prepared 0.0000
25 C25 226.6602 155.7962 178.7371 C.ar 778 ligands_prepared 0.0000
26 C26 225.7725 155.1207 177.9127 C.ar 778 ligands_prepared 0.0000
27 O27 225.3745 153.8080 178.0678 O.3 778 ligands_prepared 0.0000
28 H28 222.1471 151.2163 177.5561 H 778 ligands_prepared 0.0000
29 H29 222.4605 154.2199 177.4487 H 778 ligands_prepared 0.0000
30 H30 222.6342 153.2922 179.8304 H 778 ligands_prepared 0.0000
31 H31 220.6105 152.2847 180.8755 H 778 ligands_prepared 0.0000
32 H32 221.0938 151.2919 179.5137 H 778 ligands_prepared 0.0000
33 H33 218.5557 152.7798 179.8968 H 778 ligands_prepared 0.0000
34 H34 218.9382 151.5994 178.6275 H 778 ligands_prepared 0.0000
35 H35 218.4510 153.7470 177.6404 H 778 ligands_prepared 0.0000
36 H36 218.8795 155.1978 179.5236 H 778 ligands_prepared 0.0000
37 H37 219.7844 155.7666 178.1028 H 778 ligands_prepared 0.0000
38 H38 220.8699 154.8831 180.7120 H 778 ligands_prepared 0.0000
39 H39 221.7494 155.5865 179.3590 H 778 ligands_prepared 0.0000
40 H40 220.4729 154.3209 176.4106 H 778 ligands_prepared 0.0000
41 H41 219.7396 151.3589 176.8655 H 778 ligands_prepared 0.0000
42 H42 220.9385 151.7854 175.6537 H 778 ligands_prepared 0.0000
43 H43 217.5773 153.3537 176.7141 H 778 ligands_prepared 0.0000
44 H44 215.8302 153.8567 175.0159 H 778 ligands_prepared 0.0000
45 H45 216.2562 153.2419 172.5988 H 778 ligands_prepared 0.0000
46 H46 220.0010 151.6921 173.5215 H 778 ligands_prepared 0.0000
47 H47 223.7224 154.7685 175.3271 H 778 ligands_prepared 0.0000
48 H48 224.9345 157.5048 175.6101 H 778 ligands_prepared 0.0000
49 H49 226.4976 158.7826 177.0856 H 778 ligands_prepared 0.0000
50 H50 227.5891 157.7148 179.0163 H 778 ligands_prepared 0.0000
51 H51 227.1391 155.3147 179.5877 H 778 ligands_prepared 0.0000
@<TRIPOS>BOND
      1     1     2    2
      2     2     3   am
      3     2    19    1
      4     3     4    1
      5     3    28    1
      6     4     5    1
      7     4    11    1
      8     4    29    1
      9     5     6    1
     10     5    10    1
     11     5    30    1
     12     6     7    1
     13     6    31    1
     14     6    32    1
     15     7     8    1
     16     7    33    1
     17     7    34    1
     18     8     9    1
     19     8    11    1
     20     8    35    1
     21     9    10    1
     22     9    36    1
     23     9    37    1
     24    10    38    1
     25    10    39    1
     26    11    12    1
     27    11    40    1
     28    12    13    1
     29    12    41    1
     30    12    42    1
     31    13    14   ar
     32    13    18   ar
     33    14    15   ar
     34    14    43    1
     35    15    16   ar
     36    15    44    1
     37    16    17   ar
     38    16    45    1
     39    17    18   ar
     40    18    46    1
     41    19    20    2
     42    19    27    1
     43    20    21    1
     44    20    47    1
     45    21    22   ar
     46    21    26   ar
     47    22    23   ar
     48    22    48    1
     49    23    24   ar
     50    23    49    1
     51    24    25   ar
     52    24    50    1
     53    25    26   ar
     54    25    51    1
     55    26    27    1
@<TRIPOS>MOLECULE
CHEMBL2151441_LIG
48 51 1 0 0
SMALL
USER_CHARGES

@<TRIPOS>ATOM
1 C1 226.5345 156.9003 177.6285 C.3 778 ligands_prepared 0.0000
2 C2 225.6544 155.7886 177.2548 C.2 778 ligands_prepared 0.0000
3 C3 224.6733 155.7753 176.3016 C.2 778 ligands_prepared 0.0000
4 C4 224.0251 154.5075 176.1579 C.2 778 ligands_prepared 0.0000
5 C5 224.5145 153.5561 177.0118 C.2 778 ligands_prepared 0.0000
6 C6 224.0803 152.1678 177.1471 C.2 778 ligands_prepared 0.0000
7 O7 224.8265 151.2105 176.9713 O.2 778 ligands_prepared 0.0000
8 N8 222.7674 151.9791 177.5018 N.am 778 ligands_prepared 0.0000
9 C9 221.8840 153.1139 177.7522 C.3 778 ligands_prepared 0.0000
10 C10 221.7521 153.4072 179.2725 C.3 778 ligands_prepared 0.0000
11 C11 220.9539 152.2988 179.9698 C.3 778 ligands_prepared 0.0000
12 C12 219.5256 152.2499 179.4060 C.3 778 ligands_prepared 0.0000
13 N13 219.4134 153.1903 178.2198 N.4 778 ligands_prepared 1.0000
14 C14 219.6378 154.6153 178.6945 C.3 778 ligands_prepared 0.0000
15 C15 220.9925 154.7335 179.4070 C.3 778 ligands_prepared 0.0000
16 C16 220.4653 152.7852 177.1892 C.3 778 ligands_prepared 0.0000
17 C17 220.1914 153.4764 175.8498 C.3 778 ligands_prepared 0.0000
18 C18 219.0521 152.8142 175.1499 C.ar 778 ligands_prepared 0.0000
19 C19 217.7311 153.0987 175.5063 C.ar 778 ligands_prepared 0.0000
20 C20 216.6931 152.5012 174.8000 C.ar 778 ligands_prepared 0.0000
21 C21 217.0075 151.6224 173.7546 C.ar 778 ligands_prepared 0.0000
22 N22 218.2773 151.3194 173.4237 N.ar 778 ligands_prepared 0.0000
23 C23 219.2809 151.9018 174.1083 C.ar 778 ligands_prepared 0.0000
24 S24 225.7750 154.2107 178.0196 S.3 778 ligands_prepared 0.0000
25 H25 226.7342 156.9726 178.7109 H 778 ligands_prepared 0.0000
26 H26 226.1211 157.8800 177.3247 H 778 ligands_prepared 0.0000
27 H27 227.5217 156.8238 177.1305 H 778 ligands_prepared 0.0000
28 H28 224.3946 156.6281 175.6949 H 778 ligands_prepared 0.0000
29 H29 223.2245 154.3488 175.4413 H 778 ligands_prepared 0.0000
30 H30 222.4078 151.0484 177.7146 H 778 ligands_prepared 0.0000
31 H31 222.3018 154.0261 177.2378 H 778 ligands_prepared 0.0000
32 H32 222.7660 153.4914 179.7316 H 778 ligands_prepared 0.0000
33 H33 220.9273 152.4781 181.0646 H 778 ligands_prepared 0.0000
34 H34 221.4559 151.3175 179.8592 H 778 ligands_prepared 0.0000
35 H35 218.7707 152.5486 180.1715 H 778 ligands_prepared 0.0000
36 H36 219.2426 151.2224 179.0838 H 778 ligands_prepared 0.0000
37 H37 218.4588 153.1132 177.7830 H 778 ligands_prepared 0.0000
38 H38 218.7977 154.8971 179.3725 H 778 ligands_prepared 0.0000
39 H39 219.5731 155.3063 177.8230 H 778 ligands_prepared 0.0000
40 H40 221.5836 155.5729 178.9883 H 778 ligands_prepared 0.0000
41 H41 220.8526 154.9882 180.4773 H 778 ligands_prepared 0.0000
42 H42 220.3636 151.6700 177.0483 H 778 ligands_prepared 0.0000
43 H43 221.1151 153.4273 175.2171 H 778 ligands_prepared 0.0000
44 H44 220.0261 154.5701 175.9728 H 778 ligands_prepared 0.0000
45 H45 217.5150 153.7857 176.3313 H 778 ligands_prepared 0.0000
46 H46 215.6522 152.7122 175.0490 H 778 ligands_prepared 0.0000
47 H47 216.2224 151.1402 173.1541 H 778 ligands_prepared 0.0000
48 H48 220.2986 151.6165 173.8045 H 778 ligands_prepared 0.0000
@<TRIPOS>BOND
      1     1     2    1
      2     1    25    1
      3     1    26    1
      4     1    27    1
      5     2     3    2
      6     2    24    1
      7     3     4    1
      8     3    28    1
      9     4     5    2
     10     4    29    1
     11     5     6    1
     12     5    24    1
     13     6     7    2
     14     6     8   am
     15     8     9    1
     16     8    30    1
     17     9    10    1
     18     9    16    1
     19     9    31    1
     20    10    11    1
     21    10    15    1
     22    10    32    1
     23    11    12    1
     24    11    33    1
     25    11    34    1
     26    12    13    1
     27    12    35    1
     28    12    36    1
     29    13    14    1
     30    13    16    1
     31    13    37    1
     32    14    15    1
     33    14    38    1
     34    14    39    1
     35    15    40    1
     36    15    41    1
     37    16    17    1
     38    16    42    1
     39    17    18    1
     40    17    43    1
     41    17    44    1
     42    18    19   ar
     43    18    23   ar
     44    19    20   ar
     45    19    45    1
     46    20    21   ar
     47    20    46    1
     48    21    22   ar
     49    21    47    1
     50    22    23   ar
     51    23    48    1
@<TRIPOS>MOLECULE
CHEMBL2177535_LIG
33 35 1 0 0
SMALL
USER_CHARGES

@<TRIPOS>ATOM
1 N1 218.2116 153.9728 181.3979 N.1 778 ligands_prepared 0.0000
2 C2 218.7668 153.7075 180.4158 C.1 778 ligands_prepared 0.0000
3 C3 219.4417 153.3917 179.2135 C.ar 778 ligands_prepared 0.0000
4 C4 220.8328 153.1736 179.2141 C.ar 778 ligands_prepared 0.0000
5 N5 221.5059 152.8832 178.0878 N.ar 778 ligands_prepared 0.0000
6 C6 220.8322 152.8020 176.9256 C.ar 778 ligands_prepared 0.0000
7 C7 219.4412 153.0012 176.8367 C.ar 778 ligands_prepared 0.0000
8 C8 218.7697 152.9057 175.5394 C.2 778 ligands_prepared 0.0000
9 C9 217.5200 153.3632 175.3699 C.2 778 ligands_prepared 0.0000
10 C10 216.7945 153.2177 174.0676 C.3 778 ligands_prepared 0.0000
11 C11 215.9958 151.8989 174.0816 C.3 778 ligands_prepared 0.0000
12 N12 216.9270 150.7167 174.2445 N.4 778 ligands_prepared 1.0000
13 C13 217.9924 150.7091 173.1730 C.3 778 ligands_prepared 0.0000
14 C14 218.7744 152.0330 173.1447 C.3 778 ligands_prepared 0.0000
15 C15 219.5684 152.2712 174.4417 C.3 778 ligands_prepared 0.0000
16 C16 217.7985 153.1908 172.9062 C.3 778 ligands_prepared 0.0000
17 C17 218.7395 153.3003 178.0064 C.ar 778 ligands_prepared 0.0000
18 H18 221.4270 153.2304 180.1419 H 778 ligands_prepared 0.0000
19 H19 221.4339 152.5678 176.0338 H 778 ligands_prepared 0.0000
20 H20 216.9585 153.8487 176.1672 H 778 ligands_prepared 0.0000
21 H21 216.0742 154.0650 173.9264 H 778 ligands_prepared 0.0000
22 H22 215.4124 151.7807 173.1402 H 778 ligands_prepared 0.0000
23 H23 215.2572 151.8849 174.9173 H 778 ligands_prepared 0.0000
24 H24 217.3831 150.7651 175.1830 H 778 ligands_prepared 0.0000
25 H25 216.3836 149.8248 174.2196 H 778 ligands_prepared 0.0000
26 H26 217.5116 150.5218 172.1841 H 778 ligands_prepared 0.0000
27 H27 218.6730 149.8448 173.3593 H 778 ligands_prepared 0.0000
28 H28 219.5008 151.9751 172.2930 H 778 ligands_prepared 0.0000
29 H29 220.4430 152.9240 174.2049 H 778 ligands_prepared 0.0000
30 H30 220.0201 151.3162 174.7921 H 778 ligands_prepared 0.0000
31 H31 218.3443 154.1535 172.8472 H 778 ligands_prepared 0.0000
32 H32 217.2808 153.0836 171.9358 H 778 ligands_prepared 0.0000
33 H33 217.6543 153.4571 177.9814 H 778 ligands_prepared 0.0000
@<TRIPOS>BOND
      1     1     2    3
      2     2     3    1
      3     3     4   ar
      4     3    17   ar
      5     4     5   ar
      6     4    18    1
      7     5     6   ar
      8     6     7   ar
      9     6    19    1
     10     7     8    1
     11     7    17   ar
     12     8     9    2
     13     8    15    1
     14     9    10    1
     15     9    20    1
     16    10    11    1
     17    10    16    1
     18    10    21    1
     19    11    12    1
     20    11    22    1
     21    11    23    1
     22    12    13    1
     23    12    24    1
     24    12    25    1
     25    13    14    1
     26    13    26    1
     27    13    27    1
     28    14    15    1
     29    14    16    1
     30    14    28    1
     31    15    29    1
     32    15    30    1
     33    16    31    1
     34    16    32    1
     35    17    33    1
@<TRIPOS>MOLECULE
CHEMBL2177537_LIG
32 34 1 0 0
SMALL
USER_CHARGES

@<TRIPOS>ATOM
1 C1 219.2887 152.3362 174.5062 C.2 778 ligands_prepared 0.0000
2 C2 218.6607 152.9497 175.5208 C.2 778 ligands_prepared 0.0000
3 C3 219.2684 153.0325 176.8495 C.ar 778 ligands_prepared 0.0000
4 C4 218.5033 153.3948 177.9635 C.ar 778 ligands_prepared 0.0000
5 C5 219.1075 153.4644 179.2157 C.ar 778 ligands_prepared 0.0000
6 C6 220.4702 153.1656 179.3213 C.ar 778 ligands_prepared 0.0000
7 N7 221.2174 152.8161 178.2544 N.ar 778 ligands_prepared 0.0000
8 C8 220.6310 152.7501 177.0449 C.ar 778 ligands_prepared 0.0000
9 C9 217.3125 153.5899 175.3754 C.3 778 ligands_prepared 0.0000
10 C10 216.6028 153.1429 174.0833 C.3 778 ligands_prepared 0.0000
11 C11 216.1027 151.6865 174.2324 C.3 778 ligands_prepared 0.0000
12 N12 217.2317 150.4216 174.2031 N.4 778 ligands_prepared 1.0000
13 C13 218.0786 150.7811 173.0009 C.3 778 ligands_prepared 0.0000
14 C14 218.6883 152.1964 173.1384 C.3 778 ligands_prepared 0.0000
15 C15 217.6024 153.2582 172.9243 C.3 778 ligands_prepared 0.0000
16 H16 220.2729 151.8816 174.6231 H 778 ligands_prepared 0.0000
17 H17 217.4425 153.6264 177.8476 H 778 ligands_prepared 0.0000
18 H18 218.5302 153.7442 180.0970 H 778 ligands_prepared 0.0000
19 H19 220.9948 153.2074 180.2865 H 778 ligands_prepared 0.0000
20 H20 221.2804 152.4593 176.2077 H 778 ligands_prepared 0.0000
21 H21 217.4221 154.6972 175.3658 H 778 ligands_prepared 0.0000
22 H22 216.6741 153.3709 176.2571 H 778 ligands_prepared 0.0000
23 H23 215.7281 153.8101 173.8942 H 778 ligands_prepared 0.0000
24 H24 215.3964 151.5872 175.0885 H 778 ligands_prepared 0.0000
25 H25 215.5363 151.3685 173.3251 H 778 ligands_prepared 0.0000
26 H26 217.8342 150.3524 175.0560 H 778 ligands_prepared 0.0000
27 H27 216.8113 149.4766 174.0652 H 778 ligands_prepared 0.0000
28 H28 218.8751 150.0128 172.8758 H 778 ligands_prepared 0.0000
29 H29 217.4353 150.7129 172.0932 H 778 ligands_prepared 0.0000
30 H30 219.4902 152.3173 172.3642 H 778 ligands_prepared 0.0000
31 H31 217.1135 153.1526 171.9389 H 778 ligands_prepared 0.0000
32 H32 218.0530 154.2715 172.9042 H 778 ligands_prepared 0.0000
@<TRIPOS>BOND
      1     1     2    2
      2     1    14    1
      3     1    16    1
      4     2     3    1
      5     2     9    1
      6     3     4   ar
      7     3     8   ar
      8     4     5   ar
      9     4    17    1
     10     5     6   ar
     11     5    18    1
     12     6     7   ar
     13     6    19    1
     14     7     8   ar
     15     8    20    1
     16     9    10    1
     17     9    21    1
     18     9    22    1
     19    10    11    1
     20    10    15    1
     21    10    23    1
     22    11    12    1
     23    11    24    1
     24    11    25    1
     25    12    13    1
     26    12    26    1
     27    12    27    1
     28    13    14    1
     29    13    28    1
     30    13    29    1
     31    14    15    1
     32    14    30    1
     33    15    31    1
     34    15    32    1
@<TRIPOS>MOLECULE
CHEMBL2177538_LIG
32 34 1 0 0
SMALL
USER_CHARGES

@<TRIPOS>ATOM
1 C1 217.5346 153.4028 175.3747 C.2 778 ligands_prepared 0.0000
2 C2 218.7900 153.0037 175.6306 C.2 778 ligands_prepared 0.0000
3 C3 219.3452 153.0486 176.9834 C.ar 778 ligands_prepared 0.0000
4 C4 218.5541 153.4005 178.0816 C.ar 778 ligands_prepared 0.0000
5 C5 219.1210 153.4323 179.3527 C.ar 778 ligands_prepared 0.0000
6 C6 220.4727 153.1035 179.4942 C.ar 778 ligands_prepared 0.0000
7 N7 221.2478 152.7665 178.4426 N.ar 778 ligands_prepared 0.0000
8 C8 220.6979 152.7390 177.2153 C.ar 778 ligands_prepared 0.0000
9 C9 219.7142 152.5061 174.5615 C.3 778 ligands_prepared 0.0000
10 C10 218.9581 152.1718 173.2627 C.3 778 ligands_prepared 0.0000
11 C11 218.1413 150.8722 173.4540 C.3 778 ligands_prepared 0.0000
12 N12 216.6890 151.0412 173.0724 N.4 778 ligands_prepared 1.0000
13 C13 216.0182 152.1596 173.8426 C.3 778 ligands_prepared 0.0000
14 C14 216.9351 153.3916 173.9997 C.3 778 ligands_prepared 0.0000
15 C15 218.0363 153.3521 172.9319 C.3 778 ligands_prepared 0.0000
16 H16 216.8672 153.7573 176.1595 H 778 ligands_prepared 0.0000
17 H17 217.4978 153.6470 177.9409 H 778 ligands_prepared 0.0000
18 H18 218.5232 153.7081 180.2226 H 778 ligands_prepared 0.0000
19 H19 220.9668 153.1076 180.4765 H 778 ligands_prepared 0.0000
20 H20 221.3709 152.4630 176.3914 H 778 ligands_prepared 0.0000
21 H21 220.4883 153.2796 174.3437 H 778 ligands_prepared 0.0000
22 H22 220.2836 151.6192 174.9123 H 778 ligands_prepared 0.0000
23 H23 219.6942 152.0238 172.4369 H 778 ligands_prepared 0.0000
24 H24 218.1894 150.5187 174.5104 H 778 ligands_prepared 0.0000
25 H25 218.5666 150.0508 172.8302 H 778 ligands_prepared 0.0000
26 H26 216.6189 151.2326 172.0477 H 778 ligands_prepared 0.0000
27 H27 216.1760 150.1457 173.2393 H 778 ligands_prepared 0.0000
28 H28 215.0843 152.4336 173.2938 H 778 ligands_prepared 0.0000
29 H29 215.6928 151.7727 174.8351 H 778 ligands_prepared 0.0000
30 H30 216.3157 154.3175 173.8645 H 778 ligands_prepared 0.0000
31 H31 218.6090 154.3006 172.9315 H 778 ligands_prepared 0.0000
32 H32 217.6155 153.2770 171.9122 H 778 ligands_prepared 0.0000
@<TRIPOS>BOND
      1     1     2    2
      2     1    14    1
      3     1    16    1
      4     2     3    1
      5     2     9    1
      6     3     4   ar
      7     3     8   ar
      8     4     5   ar
      9     4    17    1
     10     5     6   ar
     11     5    18    1
     12     6     7   ar
     13     6    19    1
     14     7     8   ar
     15     8    20    1
     16     9    10    1
     17     9    21    1
     18     9    22    1
     19    10    11    1
     20    10    15    1
     21    10    23    1
     22    11    12    1
     23    11    24    1
     24    11    25    1
     25    12    13    1
     26    12    26    1
     27    12    27    1
     28    13    14    1
     29    13    28    1
     30    13    29    1
     31    14    15    1
     32    14    30    1
     33    15    31    1
     34    15    32    1
@<TRIPOS>MOLECULE
CHEMBL2177539_ncw_LIG
35 37 1 0 0
SMALL
USER_CHARGES

@<TRIPOS>ATOM
1 C1 216.9236 149.3954 173.6872 C.3 778 ligands_prepared 0.0000
2 N2 217.5936 150.6899 174.0371 N.4 778 ligands_prepared 1.0000
3 C3 218.4093 150.9989 173.1409 C.3 778 ligands_prepared 0.0000
4 C4 218.8137 152.4678 173.4079 C.3 778 ligands_prepared 0.0000
5 C5 219.4582 152.5608 174.7598 C.2 778 ligands_prepared 0.0000
6 C6 218.8015 152.9765 175.8540 C.2 778 ligands_prepared 0.0000
7 C7 219.4756 153.0669 177.1502 C.ar 778 ligands_prepared 0.0000
8 C8 218.7901 153.4181 178.3160 C.ar 778 ligands_prepared 0.0000
9 C9 219.4855 153.5016 179.5192 C.ar 778 ligands_prepared 0.0000
10 C10 220.8578 153.2302 179.5224 C.ar 778 ligands_prepared 0.0000
11 N11 221.5290 152.8804 178.4058 N.ar 778 ligands_prepared 0.0000
12 C12 220.8524 152.7973 177.2453 C.ar 778 ligands_prepared 0.0000
13 C13 217.3673 153.4099 175.8277 C.3 778 ligands_prepared 0.0000
14 C14 216.6672 152.9924 174.5219 C.3 778 ligands_prepared 0.0000
15 C15 217.5783 153.3757 173.3482 C.3 778 ligands_prepared 0.0000
16 C16 216.3990 151.4694 174.5411 C.3 778 ligands_prepared 0.0000
17 H17 216.3793 149.4615 172.7280 H 778 ligands_prepared 0.0000
18 H18 216.2013 149.1041 174.4736 H 778 ligands_prepared 0.0000
19 H19 217.6675 148.5802 173.6025 H 778 ligands_prepared 0.0000
20 H20 218.1185 150.5740 174.9460 H 778 ligands_prepared 0.0000
21 H21 219.2979 150.3287 173.1973 H 778 ligands_prepared 0.0000
22 H22 217.9991 150.8859 172.1100 H 778 ligands_prepared 0.0000
23 H23 219.5485 152.7837 172.6212 H 778 ligands_prepared 0.0000
24 H24 220.5041 152.2528 174.7914 H 778 ligands_prepared 0.0000
25 H25 217.7180 153.6243 178.2841 H 778 ligands_prepared 0.0000
26 H26 218.9717 153.7772 180.4413 H 778 ligands_prepared 0.0000
27 H27 221.4522 153.2951 180.4441 H 778 ligands_prepared 0.0000
28 H28 221.4357 152.5061 176.3608 H 778 ligands_prepared 0.0000
29 H29 216.8080 153.0145 176.7027 H 778 ligands_prepared 0.0000
30 H30 217.3172 154.5177 175.9405 H 778 ligands_prepared 0.0000
31 H31 215.6935 153.5327 174.4369 H 778 ligands_prepared 0.0000
32 H32 217.0580 153.3037 172.3758 H 778 ligands_prepared 0.0000
33 H33 217.8777 154.4406 173.4257 H 778 ligands_prepared 0.0000
34 H34 216.1460 151.1206 175.5691 H 778 ligands_prepared 0.0000
35 H35 215.5184 151.2212 173.9045 H 778 ligands_prepared 0.0000
@<TRIPOS>BOND
      1     1     2    1
      2     1    17    1
      3     1    18    1
      4     1    19    1
      5     3     2    1
      6     2    16    1
      7     2    20    1
      8     3     4    1
      9     3    21    1
     10     3    22    1
     11     4     5    1
     12     4    15    1
     13     4    23    1
     14     5     6    2
     15     5    24    1
     16     6     7    1
     17     6    13    1
     18     7     8   ar
     19     7    12   ar
     20     8     9   ar
     21     8    25    1
     22     9    10   ar
     23     9    26    1
     24    10    11   ar
     25    10    27    1
     26    11    12   ar
     27    12    28    1
     28    13    14    1
     29    13    29    1
     30    13    30    1
     31    14    15    1
     32    14    16    1
     33    14    31    1
     34    15    32    1
     35    15    33    1
     36    16    34    1
     37    16    35    1
@<TRIPOS>MOLECULE
CHEMBL2177540_ncw_LIG
35 37 1 0 0
SMALL
USER_CHARGES

@<TRIPOS>ATOM
1 C1 216.4619 149.4569 174.2020 C.3 778 ligands_prepared 0.0000
2 N2 217.1299 150.7894 174.3457 N.4 778 ligands_prepared 1.0000
3 C3 216.0996 151.8993 174.2700 C.3 778 ligands_prepared 0.0000
4 C4 216.7935 153.2711 174.3926 C.3 778 ligands_prepared 0.0000
5 C5 217.5101 153.3541 175.7044 C.2 778 ligands_prepared 0.0000
6 C6 218.7954 152.9883 175.8344 C.2 778 ligands_prepared 0.0000
7 C7 219.4714 153.0680 177.1307 C.ar 778 ligands_prepared 0.0000
8 C8 218.7674 153.4033 178.2899 C.ar 778 ligands_prepared 0.0000
9 C9 219.4440 153.4789 179.5017 C.ar 778 ligands_prepared 0.0000
10 C10 220.8176 153.2128 179.5211 C.ar 778 ligands_prepared 0.0000
11 N11 221.5054 152.8713 178.4100 N.ar 778 ligands_prepared 0.0000
12 C12 220.8464 152.7997 177.2397 C.ar 778 ligands_prepared 0.0000
13 C13 219.6352 152.5150 174.6870 C.3 778 ligands_prepared 0.0000
14 C14 218.8572 152.3412 173.3704 C.3 778 ligands_prepared 0.0000
15 C15 217.7926 153.4364 173.2374 C.3 778 ligands_prepared 0.0000
16 C16 218.1776 150.9635 173.2662 C.3 778 ligands_prepared 0.0000
17 H17 215.7111 149.3069 175.0025 H 778 ligands_prepared 0.0000
18 H18 215.9490 149.3558 173.2292 H 778 ligands_prepared 0.0000
19 H19 217.1993 148.6373 174.2878 H 778 ligands_prepared 0.0000
20 H20 217.6100 150.8413 175.2857 H 778 ligands_prepared 0.0000
21 H21 215.5388 151.8290 173.3103 H 778 ligands_prepared 0.0000
22 H22 215.3535 151.7578 175.0859 H 778 ligands_prepared 0.0000
23 H23 216.0086 154.0692 174.3317 H 778 ligands_prepared 0.0000
24 H24 216.9179 153.7185 176.5421 H 778 ligands_prepared 0.0000
25 H25 217.6922 153.6072 178.2374 H 778 ligands_prepared 0.0000
26 H26 218.9186 153.7403 180.4220 H 778 ligands_prepared 0.0000
27 H27 221.4043 153.2696 180.4496 H 778 ligands_prepared 0.0000
28 H28 221.4448 152.5108 176.3635 H 778 ligands_prepared 0.0000
29 H29 220.4578 153.2547 174.5283 H 778 ligands_prepared 0.0000
30 H30 220.1638 151.5710 174.9386 H 778 ligands_prepared 0.0000
31 H31 219.5842 152.4179 172.5193 H 778 ligands_prepared 0.0000
32 H32 218.2591 154.4406 173.2699 H 778 ligands_prepared 0.0000
33 H33 217.2820 153.3756 172.2594 H 778 ligands_prepared 0.0000
34 H34 218.9254 150.1409 173.3563 H 778 ligands_prepared 0.0000
35 H35 217.7019 150.8445 172.2632 H 778 ligands_prepared 0.0000
@<TRIPOS>BOND
      1     1     2    1
      2     1    17    1
      3     1    18    1
      4     1    19    1
      5     3     2    1
      6     2    16    1
      7     2    20    1
      8     3     4    1
      9     3    21    1
     10     3    22    1
     11     4     5    1
     12     4    15    1
     13     4    23    1
     14     5     6    2
     15     5    24    1
     16     6     7    1
     17     6    13    1
     18     7     8   ar
     19     7    12   ar
     20     8     9   ar
     21     8    25    1
     22     9    10   ar
     23     9    26    1
     24    10    11   ar
     25    10    27    1
     26    11    12   ar
     27    12    28    1
     28    13    14    1
     29    13    29    1
     30    13    30    1
     31    14    15    1
     32    14    16    1
     33    14    31    1
     34    15    32    1
     35    15    33    1
     36    16    34    1
     37    16    35    1
@<TRIPOS>MOLECULE
CHEMBL2177552_LIG
32 34 1 0 0
SMALL
USER_CHARGES

@<TRIPOS>ATOM
1 F1 218.8009 153.7069 180.5007 F 778 ligands_prepared 0.0000
2 C2 219.4527 153.4090 179.3882 C.ar 778 ligands_prepared 0.0000
3 C3 220.8351 153.1878 179.4446 C.ar 778 ligands_prepared 0.0000
4 N4 221.5227 152.8878 178.3268 N.ar 778 ligands_prepared 0.0000
5 C5 220.8690 152.8008 177.1543 C.ar 778 ligands_prepared 0.0000
6 C6 219.4817 153.0115 177.0355 C.ar 778 ligands_prepared 0.0000
7 C7 218.8009 152.9135 175.7413 C.2 778 ligands_prepared 0.0000
8 C8 219.4518 152.4605 174.6585 C.2 778 ligands_prepared 0.0000
9 C9 218.7997 152.3832 173.3128 C.3 778 ligands_prepared 0.0000
10 C10 218.1928 150.9828 173.1125 C.3 778 ligands_prepared 0.0000
11 N11 217.1594 150.7041 174.1813 N.4 778 ligands_prepared 1.0000
12 C12 216.0903 151.7724 174.2016 C.3 778 ligands_prepared 0.0000
13 C13 216.6881 153.1833 174.3472 C.3 778 ligands_prepared 0.0000
14 C14 217.3799 153.3895 175.7060 C.3 778 ligands_prepared 0.0000
15 C15 217.6862 153.4366 173.2107 C.3 778 ligands_prepared 0.0000
16 C16 218.7543 153.3223 178.1880 C.ar 778 ligands_prepared 0.0000
17 H17 221.4093 153.2465 180.3812 H 778 ligands_prepared 0.0000
18 H18 221.4865 152.5552 176.2786 H 778 ligands_prepared 0.0000
19 H19 220.4840 152.1117 174.6980 H 778 ligands_prepared 0.0000
20 H20 219.5602 152.5598 172.5072 H 778 ligands_prepared 0.0000
21 H21 217.7201 150.8955 172.1075 H 778 ligands_prepared 0.0000
22 H22 218.9789 150.1924 173.1630 H 778 ligands_prepared 0.0000
23 H23 217.6299 150.6714 175.1136 H 778 ligands_prepared 0.0000
24 H24 216.7269 149.7660 174.0266 H 778 ligands_prepared 0.0000
25 H25 215.3883 151.5479 175.0399 H 778 ligands_prepared 0.0000
26 H26 215.4892 151.7020 173.2648 H 778 ligands_prepared 0.0000
27 H27 215.8399 153.9126 174.2674 H 778 ligands_prepared 0.0000
28 H28 217.3613 154.4760 175.9590 H 778 ligands_prepared 0.0000
29 H29 216.7793 152.9084 176.5091 H 778 ligands_prepared 0.0000
30 H30 217.1889 153.3978 172.2239 H 778 ligands_prepared 0.0000
31 H31 218.1110 154.4563 173.2890 H 778 ligands_prepared 0.0000
32 H32 217.6728 153.4874 178.1389 H 778 ligands_prepared 0.0000
@<TRIPOS>BOND
      1     1     2    1
      2     2     3   ar
      3     2    16   ar
      4     3     4   ar
      5     3    17    1
      6     4     5   ar
      7     5     6   ar
      8     5    18    1
      9     6     7    1
     10     6    16   ar
     11     7     8    2
     12     7    14    1
     13     8     9    1
     14     8    19    1
     15     9    10    1
     16     9    15    1
     17     9    20    1
     18    10    11    1
     19    10    21    1
     20    10    22    1
     21    11    12    1
     22    11    23    1
     23    11    24    1
     24    12    13    1
     25    12    25    1
     26    12    26    1
     27    13    14    1
     28    13    15    1
     29    13    27    1
     30    14    28    1
     31    14    29    1
     32    15    30    1
     33    15    31    1
     34    16    32    1
@<TRIPOS>MOLECULE
CHEMBL2177553_LIG
32 34 1 0 0
SMALL
USER_CHARGES

@<TRIPOS>ATOM
1 F1 218.4996 153.4042 180.2047 F 778 ligands_prepared 0.0000
2 C2 219.1817 153.1723 179.0953 C.ar 778 ligands_prepared 0.0000
3 C3 220.5547 152.9057 179.1790 C.ar 778 ligands_prepared 0.0000
4 N4 221.2735 152.6744 178.0638 N.ar 778 ligands_prepared 0.0000
5 C5 220.6584 152.6963 176.8686 C.ar 778 ligands_prepared 0.0000
6 C6 219.2826 152.9547 176.7219 C.ar 778 ligands_prepared 0.0000
7 C7 218.6509 152.9665 175.4011 C.2 778 ligands_prepared 0.0000
8 C8 217.3830 153.3765 175.2474 C.2 778 ligands_prepared 0.0000
9 C9 216.6758 153.3490 173.9239 C.3 778 ligands_prepared 0.0000
10 C10 215.8140 152.0660 173.8554 C.3 778 ligands_prepared 0.0000
11 N11 216.6132 151.0506 173.9441 N.4 778 ligands_prepared 1.0000
12 C12 217.9034 150.8691 173.1794 C.3 778 ligands_prepared 0.0000
13 C13 218.6692 152.2005 173.0015 C.3 778 ligands_prepared 0.0000
14 C14 219.5034 152.4983 174.2615 C.3 778 ligands_prepared 0.0000
15 C15 217.6956 153.3658 172.7795 C.3 778 ligands_prepared 0.0000
16 C16 218.5234 153.2005 177.8688 C.ar 778 ligands_prepared 0.0000
17 H17 221.0962 152.8738 180.1361 H 778 ligands_prepared 0.0000
18 H18 221.2968 152.5046 175.9934 H 778 ligands_prepared 0.0000
19 H19 216.7816 153.7368 176.0834 H 778 ligands_prepared 0.0000
20 H20 216.0017 154.2407 173.8388 H 778 ligands_prepared 0.0000
21 H21 215.0914 152.0240 174.7036 H 778 ligands_prepared 0.0000
22 H22 215.1992 152.0528 172.9249 H 778 ligands_prepared 0.0000
23 H23 216.8020 151.0207 174.9729 H 778 ligands_prepared 0.0000
24 H24 215.9692 150.2533 173.7405 H 778 ligands_prepared 0.0000
25 H25 218.5274 150.1137 173.7106 H 778 ligands_prepared 0.0000
26 H26 217.6558 150.4243 172.1867 H 778 ligands_prepared 0.0000
27 H27 219.3528 152.1105 172.1234 H 778 ligands_prepared 0.0000
28 H28 220.2642 153.2763 174.0206 H 778 ligands_prepared 0.0000
29 H29 220.0940 151.6021 174.5504 H 778 ligands_prepared 0.0000
30 H30 218.2464 154.3283 172.7702 H 778 ligands_prepared 0.0000
31 H31 217.2049 153.3150 171.7911 H 778 ligands_prepared 0.0000
32 H32 217.4503 153.4020 177.7956 H 778 ligands_prepared 0.0000
@<TRIPOS>BOND
      1     1     2    1
      2     2     3   ar
      3     2    16   ar
      4     3     4   ar
      5     3    17    1
      6     4     5   ar
      7     5     6   ar
      8     5    18    1
      9     6     7    1
     10     6    16   ar
     11     7     8    2
     12     7    14    1
     13     8     9    1
     14     8    19    1
     15     9    10    1
     16     9    15    1
     17     9    20    1
     18    10    11    1
     19    10    21    1
     20    10    22    1
     21    11    12    1
     22    11    23    1
     23    11    24    1
     24    12    13    1
     25    12    25    1
     26    12    26    1
     27    13    14    1
     28    13    15    1
     29    13    27    1
     30    14    28    1
     31    14    29    1
     32    15    30    1
     33    15    31    1
     34    16    32    1
@<TRIPOS>MOLECULE
CHEMBL2178156_LIG
33 35 1 0 0
SMALL
USER_CHARGES

@<TRIPOS>ATOM
1 N1 218.2020 153.9448 181.4011 N.1 778 ligands_prepared 0.0000
2 C2 218.7616 153.7029 180.4151 C.1 778 ligands_prepared 0.0000
3 C3 219.4454 153.4020 179.2129 C.ar 778 ligands_prepared 0.0000
4 C4 220.8231 153.1154 179.2286 C.ar 778 ligands_prepared 0.0000
5 N5 221.4969 152.8184 178.1039 N.ar 778 ligands_prepared 0.0000
6 C6 220.8376 152.7975 176.9292 C.ar 778 ligands_prepared 0.0000
7 C7 219.4618 153.0799 176.8263 C.ar 778 ligands_prepared 0.0000
8 C8 218.7930 153.0503 175.5252 C.2 778 ligands_prepared 0.0000
9 C9 219.4003 152.5490 174.4393 C.2 778 ligands_prepared 0.0000
10 C10 218.7436 152.4911 173.0910 C.3 778 ligands_prepared 0.0000
11 C11 218.1952 151.0661 172.8495 C.3 778 ligands_prepared 0.0000
12 N12 216.6923 151.0047 173.0244 N.4 778 ligands_prepared 1.0000
13 C13 216.2519 151.7564 174.2588 C.3 778 ligands_prepared 0.0000
14 C14 216.6638 153.2466 174.2021 C.3 778 ligands_prepared 0.0000
15 C15 217.4103 153.6274 175.4928 C.3 778 ligands_prepared 0.0000
16 C16 217.5988 153.5111 173.0149 C.3 778 ligands_prepared 0.0000
17 C17 218.7600 153.3848 177.9930 C.ar 778 ligands_prepared 0.0000
18 H18 221.4072 153.1220 180.1637 H 778 ligands_prepared 0.0000
19 H19 221.4347 152.5427 176.0412 H 778 ligands_prepared 0.0000
20 H20 220.4145 152.1466 174.4727 H 778 ligands_prepared 0.0000
21 H21 219.5035 152.7211 172.2984 H 778 ligands_prepared 0.0000
22 H22 218.6696 150.3316 173.5404 H 778 ligands_prepared 0.0000
23 H23 218.4342 150.7221 171.8158 H 778 ligands_prepared 0.0000
24 H24 216.2233 151.4094 172.1824 H 778 ligands_prepared 0.0000
25 H25 216.3828 150.0085 173.0818 H 778 ligands_prepared 0.0000
26 H26 215.1445 151.6559 174.3523 H 778 ligands_prepared 0.0000
27 H27 216.6865 151.2522 175.1528 H 778 ligands_prepared 0.0000
28 H28 215.7458 153.8757 174.1077 H 778 ligands_prepared 0.0000
29 H29 216.8256 153.3114 176.3840 H 778 ligands_prepared 0.0000
30 H30 217.4675 154.7392 175.5664 H 778 ligands_prepared 0.0000
31 H31 218.0004 154.5429 173.0664 H 778 ligands_prepared 0.0000
32 H32 217.0699 153.4645 172.0480 H 778 ligands_prepared 0.0000
33 H33 217.6869 153.6116 177.9558 H 778 ligands_prepared 0.0000
@<TRIPOS>BOND
      1     1     2    3
      2     2     3    1
      3     3     4   ar
      4     3    17   ar
      5     4     5   ar
      6     4    18    1
      7     5     6   ar
      8     6     7   ar
      9     6    19    1
     10     7     8    1
     11     7    17   ar
     12     8     9    2
     13     8    15    1
     14     9    10    1
     15     9    20    1
     16    10    11    1
     17    10    16    1
     18    10    21    1
     19    11    12    1
     20    11    22    1
     21    11    23    1
     22    12    13    1
     23    12    24    1
     24    12    25    1
     25    13    14    1
     26    13    26    1
     27    13    27    1
     28    14    15    1
     29    14    16    1
     30    14    28    1
     31    15    29    1
     32    15    30    1
     33    16    31    1
     34    16    32    1
     35    17    33    1
@<TRIPOS>MOLECULE
CHEMBL2179554_LIG
30 32 1 0 0
SMALL
USER_CHARGES

@<TRIPOS>ATOM
1 O1 220.9767 152.1872 175.9831 O.2 778 ligands_prepared 0.0000
2 C2 219.8573 152.6202 176.2713 C.2 778 ligands_prepared 0.0000
3 C3 219.6148 153.0209 177.6534 C.2 778 ligands_prepared 0.0000
4 C4 218.4391 153.1020 178.3619 C.2 778 ligands_prepared 0.0000
5 C5 218.7781 153.5221 179.6942 C.2 778 ligands_prepared 0.0000
6 C6 220.1389 153.6626 179.6815 C.2 778 ligands_prepared 0.0000
7 F7 221.0243 154.0207 180.5629 F 778 ligands_prepared 0.0000
8 O8 220.7009 153.3622 178.4603 O.3 778 ligands_prepared 0.0000
9 N9 218.9006 152.6728 175.2948 N.am 778 ligands_prepared 0.0000
10 C10 217.5677 153.2714 175.4943 C.3 778 ligands_prepared 0.0000
11 C11 216.5452 152.7872 174.4445 C.3 778 ligands_prepared 0.0000
12 C12 216.3952 151.2539 174.4997 C.3 778 ligands_prepared 0.0000
13 N13 217.5070 150.7142 173.6053 N.4 778 ligands_prepared 1.0000
14 C14 218.1982 151.9463 173.0053 C.3 778 ligands_prepared 0.0000
15 C15 217.1092 153.0235 173.0355 C.3 778 ligands_prepared 0.0000
16 C16 219.3568 152.3827 173.9193 C.3 778 ligands_prepared 0.0000
17 H17 217.4445 152.8911 178.0026 H 778 ligands_prepared 0.0000
18 H18 218.0899 153.6819 180.5037 H 778 ligands_prepared 0.0000
19 H19 217.1741 152.9895 176.5022 H 778 ligands_prepared 0.0000
20 H20 217.6461 154.3851 175.4611 H 778 ligands_prepared 0.0000
21 H21 215.5709 153.3003 174.6092 H 778 ligands_prepared 0.0000
22 H22 216.4943 150.8412 175.5248 H 778 ligands_prepared 0.0000
23 H23 215.4072 150.9200 174.1146 H 778 ligands_prepared 0.0000
24 H24 217.1215 150.1063 172.8544 H 778 ligands_prepared 0.0000
25 H25 218.1779 150.1353 174.1477 H 778 ligands_prepared 0.0000
26 H26 218.5700 151.7001 171.9807 H 778 ligands_prepared 0.0000
27 H27 217.5051 154.0445 172.8876 H 778 ligands_prepared 0.0000
28 H28 216.3482 152.8864 172.2456 H 778 ligands_prepared 0.0000
29 H29 220.1496 151.5917 173.9476 H 778 ligands_prepared 0.0000
30 H30 219.8468 153.2896 173.4816 H 778 ligands_prepared 0.0000
@<TRIPOS>BOND
      1     1     2    2
      2     2     3    1
      3     2     9   am
      4     3     4    2
      5     3     8    1
      6     4     5    1
      7     4    17    1
      8     5     6    2
      9     5    18    1
     10     6     7    1
     11     6     8    1
     12    10     9    1
     13     9    16    1
     14    10    11    1
     15    10    19    1
     16    10    20    1
     17    11    12    1
     18    11    15    1
     19    11    21    1
     20    12    13    1
     21    12    22    1
     22    12    23    1
     23    13    14    1
     24    13    24    1
     25    13    25    1
     26    14    15    1
     27    14    16    1
     28    14    26    1
     29    15    27    1
     30    15    28    1
     31    16    29    1
     32    16    30    1
@<TRIPOS>MOLECULE
CHEMBL2179555_LIG
30 32 1 0 0
SMALL
USER_CHARGES

@<TRIPOS>ATOM
1 O1 220.9480 152.1981 176.0415 O.2 778 ligands_prepared 0.0000
2 C2 219.8261 152.6440 176.2931 C.2 778 ligands_prepared 0.0000
3 C3 219.5439 153.0608 177.6647 C.2 778 ligands_prepared 0.0000
4 C4 218.3585 153.0981 178.3587 C.2 778 ligands_prepared 0.0000
5 C5 218.6702 153.5532 179.6865 C.2 778 ligands_prepared 0.0000
6 C6 220.0223 153.7615 179.6956 C.2 778 ligands_prepared 0.0000
7 Cl7 221.1095 154.2892 180.8337 Cl 778 ligands_prepared 0.0000
8 O8 220.5984 153.4662 178.4806 O.3 778 ligands_prepared 0.0000
9 N9 218.8977 152.7033 175.2923 N.am 778 ligands_prepared 0.0000
10 C10 217.5623 153.3034 175.4707 C.3 778 ligands_prepared 0.0000
11 C11 216.5520 152.8116 174.4108 C.3 778 ligands_prepared 0.0000
12 C12 216.3973 151.2809 174.4994 C.3 778 ligands_prepared 0.0000
13 N13 217.5123 150.7170 173.6192 N.4 778 ligands_prepared 1.0000
14 C14 218.2185 151.9349 173.0082 C.3 778 ligands_prepared 0.0000
15 C15 217.1390 153.0231 173.0066 C.3 778 ligands_prepared 0.0000
16 C16 219.3721 152.3796 173.9306 C.3 778 ligands_prepared 0.0000
17 H17 217.3796 152.8391 177.9937 H 778 ligands_prepared 0.0000
18 H18 217.9609 153.6873 180.4873 H 778 ligands_prepared 0.0000
19 H19 217.1541 153.0298 176.4705 H 778 ligands_prepared 0.0000
20 H20 217.6439 154.4214 175.4308 H 778 ligands_prepared 0.0000
21 H21 215.5801 153.3339 174.5538 H 778 ligands_prepared 0.0000
22 H22 216.4936 150.8914 175.5337 H 778 ligands_prepared 0.0000
23 H23 215.4089 150.9421 174.1207 H 778 ligands_prepared 0.0000
24 H24 217.1241 150.1056 172.8738 H 778 ligands_prepared 0.0000
25 H25 218.1703 150.1387 174.1744 H 778 ligands_prepared 0.0000
26 H26 218.6022 151.6677 171.9937 H 778 ligands_prepared 0.0000
27 H27 217.5430 154.0344 172.8483 H 778 ligands_prepared 0.0000
28 H28 216.3854 152.8745 172.2098 H 778 ligands_prepared 0.0000
29 H29 220.1561 151.5876 173.9857 H 778 ligands_prepared 0.0000
30 H30 219.8728 153.2750 173.4785 H 778 ligands_prepared 0.0000
@<TRIPOS>BOND
      1     1     2    2
      2     2     3    1
      3     2     9   am
      4     3     4    2
      5     3     8    1
      6     4     5    1
      7     4    17    1
      8     5     6    2
      9     5    18    1
     10     6     7    1
     11     6     8    1
     12    10     9    1
     13     9    16    1
     14    10    11    1
     15    10    19    1
     16    10    20    1
     17    11    12    1
     18    11    15    1
     19    11    21    1
     20    12    13    1
     21    12    22    1
     22    12    23    1
     23    13    14    1
     24    13    24    1
     25    13    25    1
     26    14    15    1
     27    14    16    1
     28    14    26    1
     29    15    27    1
     30    15    28    1
     31    16    29    1
     32    16    30    1
@<TRIPOS>MOLECULE
CHEMBL2179556_LIG
30 32 1 0 0
SMALL
USER_CHARGES

@<TRIPOS>ATOM
1 O1 220.9362 152.1751 176.1307 O.2 778 ligands_prepared 0.0000
2 C2 219.8130 152.6208 176.3733 C.2 778 ligands_prepared 0.0000
3 C3 219.5123 153.0307 177.7432 C.2 778 ligands_prepared 0.0000
4 C4 218.3158 153.0984 178.4166 C.2 778 ligands_prepared 0.0000
5 C5 218.6133 153.5553 179.7472 C.2 778 ligands_prepared 0.0000
6 C6 219.9707 153.7284 179.7791 C.2 778 ligands_prepared 0.0000
7 Br7 221.2000 154.2965 181.0254 Br 778 ligands_prepared 0.0000
8 O8 220.5570 153.4107 178.5785 O.3 778 ligands_prepared 0.0000
9 N9 218.8921 152.6788 175.3622 N.am 778 ligands_prepared 0.0000
10 C10 217.5641 153.3012 175.5135 C.3 778 ligands_prepared 0.0000
11 C11 216.5676 152.8215 174.4374 C.3 778 ligands_prepared 0.0000
12 C12 216.4029 151.2896 174.4973 C.3 778 ligands_prepared 0.0000
13 N13 217.5234 150.7337 173.6224 N.4 778 ligands_prepared 1.0000
14 C14 218.2539 151.9564 173.0504 C.3 778 ligands_prepared 0.0000
15 C15 217.1778 153.0474 173.0449 C.3 778 ligands_prepared 0.0000
16 C16 219.3877 152.3719 174.0044 C.3 778 ligands_prepared 0.0000
17 H17 217.3349 152.8602 178.0378 H 778 ligands_prepared 0.0000
18 H18 217.8940 153.7154 180.5302 H 778 ligands_prepared 0.0000
19 H19 217.1328 153.0328 176.5098 H 778 ligands_prepared 0.0000
20 H20 217.6621 154.4126 175.4743 H 778 ligands_prepared 0.0000
21 H21 215.5949 153.3449 174.5713 H 778 ligands_prepared 0.0000
22 H22 216.4835 150.8823 175.5270 H 778 ligands_prepared 0.0000
23 H23 215.4178 150.9638 174.0990 H 778 ligands_prepared 0.0000
24 H24 217.1408 150.1420 172.8571 H 778 ligands_prepared 0.0000
25 H25 218.1689 150.1341 174.1738 H 778 ligands_prepared 0.0000
26 H26 218.6564 151.7067 172.0382 H 778 ligands_prepared 0.0000
27 H27 217.5893 154.0627 172.9064 H 778 ligands_prepared 0.0000
28 H28 216.4379 152.9165 172.2337 H 778 ligands_prepared 0.0000
29 H29 220.1611 151.5632 174.0646 H 778 ligands_prepared 0.0000
30 H30 219.9138 153.2651 173.5799 H 778 ligands_prepared 0.0000
@<TRIPOS>BOND
      1     1     2    2
      2     2     3    1
      3     2     9   am
      4     3     4    2
      5     3     8    1
      6     4     5    1
      7     4    17    1
      8     5     6    2
      9     5    18    1
     10     6     7    1
     11     6     8    1
     12    10     9    1
     13     9    16    1
     14    10    11    1
     15    10    19    1
     16    10    20    1
     17    11    12    1
     18    11    15    1
     19    11    21    1
     20    12    13    1
     21    12    22    1
     22    12    23    1
     23    13    14    1
     24    13    24    1
     25    13    25    1
     26    14    15    1
     27    14    16    1
     28    14    26    1
     29    15    27    1
     30    15    28    1
     31    16    29    1
     32    16    30    1
@<TRIPOS>MOLECULE
CHEMBL2179557_LIG
30 32 1 0 0
SMALL
USER_CHARGES

@<TRIPOS>ATOM
1 O1 221.2129 152.5014 176.2245 O.2 778 ligands_prepared 0.0000
2 C2 220.0270 152.7194 176.4899 C.2 778 ligands_prepared 0.0000
3 C3 219.6791 153.0455 177.8688 C.2 778 ligands_prepared 0.0000
4 C4 218.4904 152.9196 178.5471 C.2 778 ligands_prepared 0.0000
5 C5 218.7122 153.4081 179.8807 C.2 778 ligands_prepared 0.0000
6 C6 220.0241 153.7954 179.8981 C.2 778 ligands_prepared 0.0000
7 F7 220.8107 154.3050 180.7991 F 778 ligands_prepared 0.0000
8 O8 220.6602 153.6021 178.6929 O.3 778 ligands_prepared 0.0000
9 N9 219.1088 152.6852 175.4758 N.am 778 ligands_prepared 0.0000
10 C10 219.4818 152.5386 174.0555 C.3 778 ligands_prepared 0.0000
11 C11 218.2927 152.0944 173.1804 C.3 778 ligands_prepared 0.0000
12 C12 217.7266 150.7481 173.6717 C.3 778 ligands_prepared 0.0000
13 N13 216.7164 151.1129 174.7553 N.4 778 ligands_prepared 1.0000
14 C14 216.6938 152.6456 174.8089 C.3 778 ligands_prepared 0.0000
15 C15 217.1188 153.0616 173.3977 C.3 778 ligands_prepared 0.0000
16 C16 217.7442 153.1413 175.8167 C.3 778 ligands_prepared 0.0000
17 H17 217.5582 152.5327 178.1653 H 778 ligands_prepared 0.0000
18 H18 217.9854 153.4463 180.6716 H 778 ligands_prepared 0.0000
19 H19 219.8930 153.5044 173.6739 H 778 ligands_prepared 0.0000
20 H20 220.2834 151.7650 173.9542 H 778 ligands_prepared 0.0000
21 H21 218.6141 152.0398 172.1161 H 778 ligands_prepared 0.0000
22 H22 217.2173 150.1912 172.8558 H 778 ligands_prepared 0.0000
23 H23 218.5033 150.0715 174.0852 H 778 ligands_prepared 0.0000
24 H24 215.7736 150.7373 174.5271 H 778 ligands_prepared 0.0000
25 H25 216.9873 150.7091 175.6745 H 778 ligands_prepared 0.0000
26 H26 215.6716 152.9904 175.0988 H 778 ligands_prepared 0.0000
27 H27 216.3162 152.9274 172.6496 H 778 ligands_prepared 0.0000
28 H28 217.4097 154.1252 173.3274 H 778 ligands_prepared 0.0000
29 H29 217.7157 154.2600 175.8564 H 778 ligands_prepared 0.0000
30 H30 217.4873 152.7942 176.8511 H 778 ligands_prepared 0.0000
@<TRIPOS>BOND
      1     1     2    2
      2     2     3    1
      3     2     9   am
      4     3     4    2
      5     3     8    1
      6     4     5    1
      7     4    17    1
      8     5     6    2
      9     5    18    1
     10     6     7    1
     11     6     8    1
     12    10     9    1
     13     9    16    1
     14    10    11    1
     15    10    19    1
     16    10    20    1
     17    11    12    1
     18    11    15    1
     19    11    21    1
     20    12    13    1
     21    12    22    1
     22    12    23    1
     23    13    14    1
     24    13    24    1
     25    13    25    1
     26    14    15    1
     27    14    16    1
     28    14    26    1
     29    15    27    1
     30    15    28    1
     31    16    29    1
     32    16    30    1
@<TRIPOS>MOLECULE
CHEMBL2179558_LIG
30 32 1 0 0
SMALL
USER_CHARGES

@<TRIPOS>ATOM
1 O1 217.0971 153.7046 177.3286 O.2 778 ligands_prepared 0.0000
2 C2 218.1013 153.3057 176.7317 C.2 778 ligands_prepared 0.0000
3 C3 219.3346 153.1726 177.5024 C.2 778 ligands_prepared 0.0000
4 C4 219.4914 153.0975 178.8668 C.2 778 ligands_prepared 0.0000
5 C5 220.9039 153.0503 179.1186 C.2 778 ligands_prepared 0.0000
6 C6 221.4960 153.0944 177.8854 C.2 778 ligands_prepared 0.0000
7 Br7 223.2365 153.0845 177.2908 Br 778 ligands_prepared 0.0000
8 O8 220.5724 153.1703 176.8698 O.3 778 ligands_prepared 0.0000
9 N9 217.9937 153.0012 175.4033 N.am 778 ligands_prepared 0.0000
10 C10 219.1392 152.6147 174.5578 C.3 778 ligands_prepared 0.0000
11 C11 218.6952 151.8539 173.2907 C.3 778 ligands_prepared 0.0000
12 C12 217.9398 150.5648 173.6658 C.3 778 ligands_prepared 0.0000
13 N13 216.4923 151.0031 173.8755 N.4 778 ligands_prepared 1.0000
14 C14 216.4443 152.4945 173.5100 C.3 778 ligands_prepared 0.0000
15 C15 217.6253 152.6732 172.5505 C.3 778 ligands_prepared 0.0000
16 C16 216.7049 153.3429 174.7646 C.3 778 ligands_prepared 0.0000
17 H17 218.7124 153.0820 179.6103 H 778 ligands_prepared 0.0000
18 H18 221.3660 152.9992 180.0868 H 778 ligands_prepared 0.0000
19 H19 219.7214 153.5234 174.2712 H 778 ligands_prepared 0.0000
20 H20 219.8255 151.9498 175.1373 H 778 ligands_prepared 0.0000
21 H21 219.5821 151.6398 172.6541 H 778 ligands_prepared 0.0000
22 H22 217.9875 149.8084 172.8566 H 778 ligands_prepared 0.0000
23 H23 218.3292 150.0810 174.5843 H 778 ligands_prepared 0.0000
24 H24 215.8426 150.4528 173.2773 H 778 ligands_prepared 0.0000
25 H25 216.1927 150.8513 174.8620 H 778 ligands_prepared 0.0000
26 H26 215.4479 152.7314 173.0653 H 778 ligands_prepared 0.0000
27 H27 217.4164 152.2825 171.5359 H 778 ligands_prepared 0.0000
28 H28 217.9037 153.7315 172.4057 H 778 ligands_prepared 0.0000
29 H29 216.6941 154.4257 174.4841 H 778 ligands_prepared 0.0000
30 H30 215.8745 153.2137 175.5054 H 778 ligands_prepared 0.0000
@<TRIPOS>BOND
      1     1     2    2
      2     2     3    1
      3     2     9   am
      4     3     4    2
      5     3     8    1
      6     4     5    1
      7     4    17    1
      8     5     6    2
      9     5    18    1
     10     6     7    1
     11     6     8    1
     12    10     9    1
     13     9    16    1
     14    10    11    1
     15    10    19    1
     16    10    20    1
     17    11    12    1
     18    11    15    1
     19    11    21    1
     20    12    13    1
     21    12    22    1
     22    12    23    1
     23    13    14    1
     24    13    24    1
     25    13    25    1
     26    14    15    1
     27    14    16    1
     28    14    26    1
     29    15    27    1
     30    15    28    1
     31    16    29    1
     32    16    30    1
@<TRIPOS>MOLECULE
CHEMBL2179837_LIG
48 51 1 0 0
SMALL
USER_CHARGES

@<TRIPOS>ATOM
1 O1 222.1767 153.0192 176.2715 O.2 778 ligands_prepared 0.0000
2 C2 222.2250 153.5445 177.3732 C.2 778 ligands_prepared 0.0000
3 N3 223.3149 154.2615 177.7864 N.am 778 ligands_prepared 0.0000
4 C4 224.4911 154.4319 176.9378 C.3 778 ligands_prepared 0.0000
5 C5 224.9267 153.0797 176.3140 C.3 778 ligands_prepared 0.0000
6 C6 226.0832 153.3763 175.3495 C.3 778 ligands_prepared 0.0000
7 C7 227.2441 154.0144 176.1245 C.3 778 ligands_prepared 0.0000
8 N8 226.9014 154.1194 177.5996 N.4 778 ligands_prepared 1.0000
9 C9 226.6143 152.7290 178.1404 C.3 778 ligands_prepared 0.0000
10 C10 225.4162 152.1151 177.4021 C.3 778 ligands_prepared 0.0000
11 C11 225.6614 154.9810 177.8164 C.3 778 ligands_prepared 0.0000
12 C12 225.9562 156.4516 177.5094 C.3 778 ligands_prepared 0.0000
13 C13 226.7260 157.0938 178.6141 C.ar 778 ligands_prepared 0.0000
14 C14 227.0785 156.3755 179.7601 C.ar 778 ligands_prepared 0.0000
15 C15 227.8012 157.0061 180.7655 C.ar 778 ligands_prepared 0.0000
16 C16 228.1469 158.3542 180.6016 C.ar 778 ligands_prepared 0.0000
17 N17 227.7974 159.0596 179.5081 N.ar 778 ligands_prepared 0.0000
18 C18 227.1012 158.4439 178.5343 C.ar 778 ligands_prepared 0.0000
19 C19 221.1191 153.4653 178.3595 C.ar 778 ligands_prepared 0.0000
20 C20 221.3701 153.6731 179.7154 C.ar 778 ligands_prepared 0.0000
21 C21 220.3223 153.5906 180.6311 C.ar 778 ligands_prepared 0.0000
22 C22 219.0261 153.3036 180.2005 C.ar 778 ligands_prepared 0.0000
23 C23 218.7545 153.0973 178.8494 C.ar 778 ligands_prepared 0.0000
24 C24 219.8165 153.1840 177.9546 C.ar 778 ligands_prepared 0.0000
25 F25 219.5890 152.9910 176.6618 F 778 ligands_prepared 0.0000
26 H26 223.3534 154.6732 178.7193 H 778 ligands_prepared 0.0000
27 H27 224.2529 155.1594 176.1091 H 778 ligands_prepared 0.0000
28 H28 224.0684 152.6286 175.7614 H 778 ligands_prepared 0.0000
29 H29 225.7519 154.0376 174.5228 H 778 ligands_prepared 0.0000
30 H30 226.4128 152.4420 174.8497 H 778 ligands_prepared 0.0000
31 H31 227.4905 155.0270 175.7332 H 778 ligands_prepared 0.0000
32 H32 228.1775 153.4102 176.0248 H 778 ligands_prepared 0.0000
33 H33 227.7107 154.5484 178.1162 H 778 ligands_prepared 0.0000
34 H34 227.5308 152.1048 178.0198 H 778 ligands_prepared 0.0000
35 H35 226.4341 152.7970 179.2380 H 778 ligands_prepared 0.0000
36 H36 224.6036 151.8613 178.1108 H 778 ligands_prepared 0.0000
37 H37 225.6993 151.1425 176.9465 H 778 ligands_prepared 0.0000
38 H38 225.3907 154.8847 178.9083 H 778 ligands_prepared 0.0000
39 H39 224.9854 156.9922 177.3608 H 778 ligands_prepared 0.0000
40 H40 226.4662 156.5701 176.5269 H 778 ligands_prepared 0.0000
41 H41 226.7870 155.3266 179.8674 H 778 ligands_prepared 0.0000
42 H42 228.0947 156.4671 181.6671 H 778 ligands_prepared 0.0000
43 H43 228.7189 158.8985 181.3679 H 778 ligands_prepared 0.0000
44 H44 226.8349 159.0638 177.6658 H 778 ligands_prepared 0.0000
45 H45 222.3852 153.8965 180.0581 H 778 ligands_prepared 0.0000
46 H46 220.5209 153.7477 181.6940 H 778 ligands_prepared 0.0000
47 H47 218.2133 153.2383 180.9308 H 778 ligands_prepared 0.0000
48 H48 217.7420 152.8678 178.5092 H 778 ligands_prepared 0.0000
@<TRIPOS>BOND
      1     1     2    2
      2     2     3   am
      3     2    19    1
      4     3     4    1
      5     3    26    1
      6     4     5    1
      7     4    11    1
      8     4    27    1
      9     5     6    1
     10     5    10    1
     11     5    28    1
     12     6     7    1
     13     6    29    1
     14     6    30    1
     15     7     8    1
     16     7    31    1
     17     7    32    1
     18     8     9    1
     19     8    11    1
     20     8    33    1
     21     9    10    1
     22     9    34    1
     23     9    35    1
     24    10    36    1
     25    10    37    1
     26    11    12    1
     27    11    38    1
     28    12    13    1
     29    12    39    1
     30    12    40    1
     31    13    14   ar
     32    13    18   ar
     33    14    15   ar
     34    14    41    1
     35    15    16   ar
     36    15    42    1
     37    16    17   ar
     38    16    43    1
     39    17    18   ar
     40    18    44    1
     41    19    20   ar
     42    19    24   ar
     43    20    21   ar
     44    20    45    1
     45    21    22   ar
     46    21    46    1
     47    22    23   ar
     48    22    47    1
     49    23    24   ar
     50    23    48    1
     51    24    25    1
@<TRIPOS>MOLECULE
CHEMBL2179838_LIG
48 51 1 0 0
SMALL
USER_CHARGES

@<TRIPOS>ATOM
1 O1 223.6729 152.5351 176.3540 O.2 778 ligands_prepared 0.0000
2 C2 223.1188 153.4714 176.9128 C.2 778 ligands_prepared 0.0000
3 N3 223.7128 154.7071 176.9576 N.am 778 ligands_prepared 0.0000
4 C4 225.0004 154.9163 176.2944 C.3 778 ligands_prepared 0.0000
5 C5 226.0770 153.9437 176.8363 C.3 778 ligands_prepared 0.0000
6 C6 227.3711 154.2433 176.0632 C.3 778 ligands_prepared 0.0000
7 C7 227.8717 155.6466 176.4297 C.3 778 ligands_prepared 0.0000
8 N8 226.8281 156.3748 177.2549 N.4 778 ligands_prepared 1.0000
9 C9 226.6554 155.6561 178.5810 C.3 778 ligands_prepared 0.0000
10 C10 226.3236 154.1769 178.3339 C.3 778 ligands_prepared 0.0000
11 C11 225.4761 156.3887 176.5434 C.3 778 ligands_prepared 0.0000
12 C12 225.5634 157.1810 175.2364 C.3 778 ligands_prepared 0.0000
13 C13 225.9644 158.5952 175.4869 C.ar 778 ligands_prepared 0.0000
14 C14 227.2913 158.9337 175.7590 C.ar 778 ligands_prepared 0.0000
15 C15 227.6165 160.2632 176.0158 C.ar 778 ligands_prepared 0.0000
16 C16 226.5993 161.2217 175.9826 C.ar 778 ligands_prepared 0.0000
17 N17 225.3191 160.9090 175.6942 N.ar 778 ligands_prepared 0.0000
18 C18 225.0091 159.6221 175.4447 C.ar 778 ligands_prepared 0.0000
19 C19 221.7782 153.3349 177.5447 C.ar 778 ligands_prepared 0.0000
20 C20 220.7447 152.7889 176.7827 C.ar 778 ligands_prepared 0.0000
21 C21 219.4666 152.6653 177.3296 C.ar 778 ligands_prepared 0.0000
22 C22 219.2082 153.0994 178.6272 C.ar 778 ligands_prepared 0.0000
23 C23 220.2632 153.6504 179.3573 C.ar 778 ligands_prepared 0.0000
24 F24 220.0278 154.0732 180.5963 F 778 ligands_prepared 0.0000
25 C25 221.5539 153.7746 178.8482 C.ar 778 ligands_prepared 0.0000
26 H26 223.2908 155.4937 177.4429 H 778 ligands_prepared 0.0000
27 H27 224.8654 154.7467 175.1859 H 778 ligands_prepared 0.0000
28 H28 225.7582 152.8880 176.6627 H 778 ligands_prepared 0.0000
29 H29 227.2015 154.1568 174.9700 H 778 ligands_prepared 0.0000
30 H30 228.1444 153.4836 176.2940 H 778 ligands_prepared 0.0000
31 H31 228.1109 156.2476 175.5247 H 778 ligands_prepared 0.0000
32 H32 228.8171 155.5998 177.0224 H 778 ligands_prepared 0.0000
33 H33 227.1364 157.3685 177.4178 H 778 ligands_prepared 0.0000
34 H34 227.5897 155.7710 179.1761 H 778 ligands_prepared 0.0000
35 H35 225.8529 156.1665 179.1638 H 778 ligands_prepared 0.0000
36 H36 227.1549 153.5279 178.6839 H 778 ligands_prepared 0.0000
37 H37 225.4546 153.8609 178.9453 H 778 ligands_prepared 0.0000
38 H38 224.7522 156.9036 177.2386 H 778 ligands_prepared 0.0000
39 H39 226.2379 156.6881 174.5010 H 778 ligands_prepared 0.0000
40 H40 224.5640 157.1440 174.7258 H 778 ligands_prepared 0.0000
41 H41 228.0723 158.1680 175.7640 H 778 ligands_prepared 0.0000
42 H42 228.6436 160.5542 176.2378 H 778 ligands_prepared 0.0000
43 H43 226.8045 162.2848 176.1795 H 778 ligands_prepared 0.0000
44 H44 223.9570 159.4193 175.1972 H 778 ligands_prepared 0.0000
45 H45 220.9338 152.4668 175.7534 H 778 ligands_prepared 0.0000
46 H46 218.6618 152.2199 176.7318 H 778 ligands_prepared 0.0000
47 H47 218.2018 153.0151 179.0552 H 778 ligands_prepared 0.0000
48 H48 222.3536 154.2164 179.4445 H 778 ligands_prepared 0.0000
@<TRIPOS>BOND
      1     1     2    2
      2     2     3   am
      3     2    19    1
      4     3     4    1
      5     3    26    1
      6     4     5    1
      7     4    11    1
      8     4    27    1
      9     5     6    1
     10     5    10    1
     11     5    28    1
     12     6     7    1
     13     6    29    1
     14     6    30    1
     15     7     8    1
     16     7    31    1
     17     7    32    1
     18     8     9    1
     19     8    11    1
     20     8    33    1
     21     9    10    1
     22     9    34    1
     23     9    35    1
     24    10    36    1
     25    10    37    1
     26    11    12    1
     27    11    38    1
     28    12    13    1
     29    12    39    1
     30    12    40    1
     31    13    14   ar
     32    13    18   ar
     33    14    15   ar
     34    14    41    1
     35    15    16   ar
     36    15    42    1
     37    16    17   ar
     38    16    43    1
     39    17    18   ar
     40    18    44    1
     41    19    20   ar
     42    19    25   ar
     43    20    21   ar
     44    20    45    1
     45    21    22   ar
     46    21    46    1
     47    22    23   ar
     48    22    47    1
     49    23    24    1
     50    23    25   ar
     51    25    48    1
@<TRIPOS>MOLECULE
CHEMBL2179839_LIG
48 51 1 0 0
SMALL
USER_CHARGES

@<TRIPOS>ATOM
1 O1 225.8363 162.1452 173.1081 O.2 778 ligands_prepared 0.0000
2 C2 224.9725 161.3092 172.8724 C.2 778 ligands_prepared 0.0000
3 N3 225.1066 160.0253 173.3359 N.am 778 ligands_prepared 0.0000
4 C4 226.2795 159.6509 174.1255 C.3 778 ligands_prepared 0.0000
5 C5 227.5676 159.7293 173.2701 C.3 778 ligands_prepared 0.0000
6 C6 228.7454 159.3929 174.1957 C.3 778 ligands_prepared 0.0000
7 C7 228.6144 157.9419 174.6796 C.3 778 ligands_prepared 0.0000
8 N8 227.3021 157.3439 174.2097 N.4 778 ligands_prepared 1.0000
9 C9 227.2963 157.2986 172.6920 C.3 778 ligands_prepared 0.0000
10 C10 227.5235 158.7073 172.1255 C.3 778 ligands_prepared 0.0000
11 C11 226.1137 158.1885 174.6616 C.3 778 ligands_prepared 0.0000
12 C12 225.9763 158.1678 176.1863 C.3 778 ligands_prepared 0.0000
13 C13 225.8046 156.7878 176.7215 C.ar 778 ligands_prepared 0.0000
14 C14 226.3783 156.3954 177.9336 C.ar 778 ligands_prepared 0.0000
15 C15 226.1645 155.1008 178.3996 C.ar 778 ligands_prepared 0.0000
16 C16 225.3695 154.2336 177.6415 C.ar 778 ligands_prepared 0.0000
17 N17 224.8092 154.6049 176.4715 N.ar 778 ligands_prepared 0.0000
18 C18 225.0233 155.8552 176.0209 C.ar 778 ligands_prepared 0.0000
19 C19 223.7528 161.6232 172.0903 C.ar 778 ligands_prepared 0.0000
20 C20 222.5218 161.2011 172.6043 C.ar 778 ligands_prepared 0.0000
21 C21 221.3512 161.4466 171.8958 C.ar 778 ligands_prepared 0.0000
22 C22 221.4571 162.1175 170.6762 C.ar 778 ligands_prepared 0.0000
23 F23 220.3463 162.3641 169.9953 F 778 ligands_prepared 0.0000
24 C24 222.6731 162.5420 170.1363 C.ar 778 ligands_prepared 0.0000
25 C25 223.8324 162.2882 170.8628 C.ar 778 ligands_prepared 0.0000
26 H26 224.4205 159.3024 173.1306 H 778 ligands_prepared 0.0000
27 H27 226.3682 160.3613 174.9989 H 778 ligands_prepared 0.0000
28 H28 227.6860 160.7606 172.8569 H 778 ligands_prepared 0.0000
29 H29 228.7872 160.0938 175.0543 H 778 ligands_prepared 0.0000
30 H30 229.7086 159.5398 173.6643 H 778 ligands_prepared 0.0000
31 H31 229.4481 157.3094 174.2869 H 778 ligands_prepared 0.0000
32 H32 228.6751 157.8717 175.7882 H 778 ligands_prepared 0.0000
33 H33 227.1971 156.3715 174.6001 H 778 ligands_prepared 0.0000
34 H34 228.0851 156.5884 172.3510 H 778 ligands_prepared 0.0000
35 H35 226.3275 156.8676 172.3473 H 778 ligands_prepared 0.0000
36 H36 226.7408 158.9616 171.3840 H 778 ligands_prepared 0.0000
37 H37 228.4708 158.7455 171.5482 H 778 ligands_prepared 0.0000
38 H38 225.1969 157.7217 174.2028 H 778 ligands_prepared 0.0000
39 H39 225.0875 158.7970 176.4645 H 778 ligands_prepared 0.0000
40 H40 226.8241 158.6983 176.6771 H 778 ligands_prepared 0.0000
41 H41 226.9783 157.0961 178.5199 H 778 ligands_prepared 0.0000
42 H42 226.6055 154.7649 179.3394 H 778 ligands_prepared 0.0000
43 H43 225.1618 153.2062 177.9728 H 778 ligands_prepared 0.0000
44 H44 224.5432 156.1144 175.0668 H 778 ligands_prepared 0.0000
45 H45 222.4833 160.6800 173.5677 H 778 ligands_prepared 0.0000
46 H46 220.3867 161.1198 172.2941 H 778 ligands_prepared 0.0000
47 H47 222.7242 163.0602 169.1754 H 778 ligands_prepared 0.0000
48 H48 224.8013 162.6066 170.4628 H 778 ligands_prepared 0.0000
@<TRIPOS>BOND
      1     1     2    2
      2     2     3   am
      3     2    19    1
      4     3     4    1
      5     3    26    1
      6     4     5    1
      7     4    11    1
      8     4    27    1
      9     5     6    1
     10     5    10    1
     11     5    28    1
     12     6     7    1
     13     6    29    1
     14     6    30    1
     15     7     8    1
     16     7    31    1
     17     7    32    1
     18     8     9    1
     19     8    11    1
     20     8    33    1
     21     9    10    1
     22     9    34    1
     23     9    35    1
     24    10    36    1
     25    10    37    1
     26    11    12    1
     27    11    38    1
     28    12    13    1
     29    12    39    1
     30    12    40    1
     31    13    14   ar
     32    13    18   ar
     33    14    15   ar
     34    14    41    1
     35    15    16   ar
     36    15    42    1
     37    16    17   ar
     38    16    43    1
     39    17    18   ar
     40    18    44    1
     41    19    20   ar
     42    19    25   ar
     43    20    21   ar
     44    20    45    1
     45    21    22   ar
     46    21    46    1
     47    22    23    1
     48    22    24   ar
     49    24    25   ar
     50    24    47    1
     51    25    48    1
@<TRIPOS>MOLECULE
CHEMBL2179840_LIG
48 51 1 0 0
SMALL
USER_CHARGES

@<TRIPOS>ATOM
1 O1 221.7405 152.7284 176.2375 O.2 778 ligands_prepared 0.0000
2 C2 221.8946 153.3267 177.2914 C.2 778 ligands_prepared 0.0000
3 N3 223.0610 153.9870 177.5753 N.am 778 ligands_prepared 0.0000
4 C4 224.1411 154.0450 176.5923 C.3 778 ligands_prepared 0.0000
5 C5 224.9246 152.7080 176.5713 C.3 778 ligands_prepared 0.0000
6 C6 225.8036 152.5847 177.8261 C.3 778 ligands_prepared 0.0000
7 C7 226.8809 153.6800 177.8154 C.3 778 ligands_prepared 0.0000
8 N8 226.5621 154.6943 176.7275 N.4 778 ligands_prepared 1.0000
9 C9 226.7089 153.9995 175.3872 C.3 778 ligands_prepared 0.0000
10 C10 225.8303 152.7407 175.3336 C.3 778 ligands_prepared 0.0000
11 C11 225.1371 155.1887 176.9713 C.3 778 ligands_prepared 0.0000
12 C12 224.8641 156.5369 176.2979 C.3 778 ligands_prepared 0.0000
13 C13 225.8071 157.6516 176.5932 C.ar 778 ligands_prepared 0.0000
14 C14 226.7001 157.5887 177.6664 C.ar 778 ligands_prepared 0.0000
15 C15 227.5730 158.6474 177.8980 C.ar 778 ligands_prepared 0.0000
16 C16 227.5459 159.7410 177.0259 C.ar 778 ligands_prepared 0.0000
17 N17 226.7141 159.7973 175.9649 N.ar 778 ligands_prepared 0.0000
18 C18 225.8667 158.7741 175.7514 C.ar 778 ligands_prepared 0.0000
19 C19 220.8341 153.4010 178.3281 C.ar 778 ligands_prepared 0.0000
20 C20 221.1793 153.7008 179.6454 C.ar 778 ligands_prepared 0.0000
21 C21 220.1857 153.7397 180.6237 C.ar 778 ligands_prepared 0.0000
22 C22 218.8563 153.4798 180.2908 C.ar 778 ligands_prepared 0.0000
23 C23 218.5021 153.1730 178.9748 C.ar 778 ligands_prepared 0.0000
24 C24 219.5043 153.1398 178.0185 C.ar 778 ligands_prepared 0.0000
25 Cl25 219.1003 152.7518 176.3987 Cl 778 ligands_prepared 0.0000
26 H26 223.2026 154.4689 178.4593 H 778 ligands_prepared 0.0000
27 H27 223.6966 154.2366 175.5769 H 778 ligands_prepared 0.0000
28 H28 224.2153 151.8492 176.5104 H 778 ligands_prepared 0.0000
29 H29 225.1939 152.6392 178.7487 H 778 ligands_prepared 0.0000
30 H30 226.2774 151.5822 177.8644 H 778 ligands_prepared 0.0000
31 H31 226.9483 154.2078 178.7946 H 778 ligands_prepared 0.0000
32 H32 227.8951 153.2581 177.6250 H 778 ligands_prepared 0.0000
33 H33 227.2314 155.5063 176.7804 H 778 ligands_prepared 0.0000
34 H34 227.7856 153.7419 175.2408 H 778 ligands_prepared 0.0000
35 H35 226.4504 154.7046 174.5705 H 778 ligands_prepared 0.0000
36 H36 225.2337 152.7161 174.4000 H 778 ligands_prepared 0.0000
37 H37 226.4570 151.8248 175.2938 H 778 ligands_prepared 0.0000
38 H38 225.0617 155.3704 178.0871 H 778 ligands_prepared 0.0000
39 H39 223.8121 156.8467 176.5149 H 778 ligands_prepared 0.0000
40 H40 224.8521 156.3543 175.1892 H 778 ligands_prepared 0.0000
41 H41 226.7222 156.7065 178.3170 H 778 ligands_prepared 0.0000
42 H42 228.2672 158.6248 178.7384 H 778 ligands_prepared 0.0000
43 H43 228.2124 160.6039 177.1636 H 778 ligands_prepared 0.0000
44 H44 225.2192 158.8626 174.8661 H 778 ligands_prepared 0.0000
45 H45 222.2217 153.9044 179.9066 H 778 ligands_prepared 0.0000
46 H46 220.4532 153.9738 181.6574 H 778 ligands_prepared 0.0000
47 H47 218.0838 153.5157 181.0641 H 778 ligands_prepared 0.0000
48 H48 217.4609 152.9666 178.7178 H 778 ligands_prepared 0.0000
@<TRIPOS>BOND
      1     1     2    2
      2     2     3   am
      3     2    19    1
      4     3     4    1
      5     3    26    1
      6     4     5    1
      7     4    11    1
      8     4    27    1
      9     5     6    1
     10     5    10    1
     11     5    28    1
     12     6     7    1
     13     6    29    1
     14     6    30    1
     15     7     8    1
     16     7    31    1
     17     7    32    1
     18     8     9    1
     19     8    11    1
     20     8    33    1
     21     9    10    1
     22     9    34    1
     23     9    35    1
     24    10    36    1
     25    10    37    1
     26    11    12    1
     27    11    38    1
     28    12    13    1
     29    12    39    1
     30    12    40    1
     31    13    14   ar
     32    13    18   ar
     33    14    15   ar
     34    14    41    1
     35    15    16   ar
     36    15    42    1
     37    16    17   ar
     38    16    43    1
     39    17    18   ar
     40    18    44    1
     41    19    20   ar
     42    19    24   ar
     43    20    21   ar
     44    20    45    1
     45    21    22   ar
     46    21    46    1
     47    22    23   ar
     48    22    47    1
     49    23    24   ar
     50    23    48    1
     51    24    25    1
@<TRIPOS>MOLECULE
CHEMBL2179841_LIG
48 51 1 0 0
SMALL
USER_CHARGES

@<TRIPOS>ATOM
1 O1 222.6784 152.4506 177.1327 O.2 778 ligands_prepared 0.0000
2 C2 223.1176 153.5847 177.2492 C.2 778 ligands_prepared 0.0000
3 N3 222.3549 154.5966 177.7696 N.am 778 ligands_prepared 0.0000
4 C4 220.9785 154.3540 178.1906 C.3 778 ligands_prepared 0.0000
5 C5 220.9338 153.7456 179.6144 C.3 778 ligands_prepared 0.0000
6 C6 219.4587 153.6986 180.0372 C.3 778 ligands_prepared 0.0000
7 C7 218.6647 152.8511 179.0314 C.3 778 ligands_prepared 0.0000
8 N8 219.5955 152.2574 177.9911 N.4 778 ligands_prepared 1.0000
9 C9 220.6509 151.4229 178.6968 C.3 778 ligands_prepared 0.0000
10 C10 221.4985 152.3181 179.6124 C.3 778 ligands_prepared 0.0000
11 C11 220.3013 153.3528 177.1970 C.3 778 ligands_prepared 0.0000
12 C12 219.3199 154.0703 176.2676 C.3 778 ligands_prepared 0.0000
13 C13 218.6247 153.1014 175.3727 C.ar 778 ligands_prepared 0.0000
14 C14 217.2319 153.0497 175.2963 C.ar 778 ligands_prepared 0.0000
15 C15 216.6305 152.1048 174.4686 C.ar 778 ligands_prepared 0.0000
16 C16 217.4477 151.2428 173.7286 C.ar 778 ligands_prepared 0.0000
17 N17 218.7934 151.3001 173.7813 N.ar 778 ligands_prepared 0.0000
18 C18 219.3719 152.2100 174.5866 C.ar 778 ligands_prepared 0.0000
19 C19 224.4981 153.9648 176.8441 C.ar 778 ligands_prepared 0.0000
20 C20 225.5235 153.0289 176.9699 C.ar 778 ligands_prepared 0.0000
21 C21 226.8231 153.3748 176.5998 C.ar 778 ligands_prepared 0.0000
22 C22 227.0979 154.6511 176.1115 C.ar 778 ligands_prepared 0.0000
23 C23 226.0503 155.5576 176.0084 C.ar 778 ligands_prepared 0.0000
24 Cl24 226.3847 157.1344 175.4219 Cl 778 ligands_prepared 0.0000
25 C25 224.7447 155.2480 176.3598 C.ar 778 ligands_prepared 0.0000
26 H26 222.7231 155.5409 177.8815 H 778 ligands_prepared 0.0000
27 H27 220.4145 155.3314 178.1905 H 778 ligands_prepared 0.0000
28 H28 221.5167 154.3853 180.3188 H 778 ligands_prepared 0.0000
29 H29 219.0336 154.7198 180.1095 H 778 ligands_prepared 0.0000
30 H30 219.3663 153.2791 181.0605 H 778 ligands_prepared 0.0000
31 H31 217.8796 153.4527 178.5210 H 778 ligands_prepared 0.0000
32 H32 218.1284 152.0155 179.5414 H 778 ligands_prepared 0.0000
33 H33 219.0464 151.6528 177.3273 H 778 ligands_prepared 0.0000
34 H34 220.1379 150.6184 179.2731 H 778 ligands_prepared 0.0000
35 H35 221.2749 150.9058 177.9334 H 778 ligands_prepared 0.0000
36 H36 221.5086 151.9115 180.6456 H 778 ligands_prepared 0.0000
37 H37 222.5609 152.3041 179.3008 H 778 ligands_prepared 0.0000
38 H38 221.0945 152.8434 176.5795 H 778 ligands_prepared 0.0000
39 H39 218.5952 154.6958 176.8367 H 778 ligands_prepared 0.0000
40 H40 219.8850 154.8289 175.6643 H 778 ligands_prepared 0.0000
41 H41 216.6148 153.7439 175.8732 H 778 ligands_prepared 0.0000
42 H42 215.5445 152.0357 174.3975 H 778 ligands_prepared 0.0000
43 H43 217.0213 150.4762 173.0642 H 778 ligands_prepared 0.0000
44 H44 220.4703 152.2226 174.5952 H 778 ligands_prepared 0.0000
45 H45 225.3110 152.0269 177.3533 H 778 ligands_prepared 0.0000
46 H46 227.6286 152.6403 176.6931 H 778 ligands_prepared 0.0000
47 H47 228.1179 154.9186 175.8205 H 778 ligands_prepared 0.0000
48 H48 223.9328 155.9749 176.2640 H 778 ligands_prepared 0.0000
@<TRIPOS>BOND
      1     1     2    2
      2     2     3   am
      3     2    19    1
      4     3     4    1
      5     3    26    1
      6     4     5    1
      7     4    11    1
      8     4    27    1
      9     5     6    1
     10     5    10    1
     11     5    28    1
     12     6     7    1
     13     6    29    1
     14     6    30    1
     15     7     8    1
     16     7    31    1
     17     7    32    1
     18     8     9    1
     19     8    11    1
     20     8    33    1
     21     9    10    1
     22     9    34    1
     23     9    35    1
     24    10    36    1
     25    10    37    1
     26    11    12    1
     27    11    38    1
     28    12    13    1
     29    12    39    1
     30    12    40    1
     31    13    14   ar
     32    13    18   ar
     33    14    15   ar
     34    14    41    1
     35    15    16   ar
     36    15    42    1
     37    16    17   ar
     38    16    43    1
     39    17    18   ar
     40    18    44    1
     41    19    20   ar
     42    19    25   ar
     43    20    21   ar
     44    20    45    1
     45    21    22   ar
     46    21    46    1
     47    22    23   ar
     48    22    47    1
     49    23    24    1
     50    23    25   ar
     51    25    48    1
@<TRIPOS>MOLECULE
CHEMBL2179842_LIG
48 51 1 0 0
SMALL
USER_CHARGES

@<TRIPOS>ATOM
1 O1 227.6432 159.6457 176.4556 O.2 778 ligands_prepared 0.0000
2 C2 227.8235 158.7553 177.2797 C.2 778 ligands_prepared 0.0000
3 N3 228.7737 158.9015 178.2553 N.am 778 ligands_prepared 0.0000
4 C4 229.5400 160.1468 178.3324 C.3 778 ligands_prepared 0.0000
5 C5 231.0594 159.8651 178.2545 C.3 778 ligands_prepared 0.0000
6 C6 231.7674 161.2266 178.3059 C.3 778 ligands_prepared 0.0000
7 C7 231.5346 161.8699 179.6807 C.3 778 ligands_prepared 0.0000
8 N8 230.5247 161.0604 180.4723 N.4 778 ligands_prepared 1.0000
9 C9 231.1242 159.6950 180.7600 C.3 778 ligands_prepared 0.0000
10 C10 231.5227 159.0129 179.4448 C.3 778 ligands_prepared 0.0000
11 C11 229.2297 160.8737 179.6860 C.3 778 ligands_prepared 0.0000
12 C12 228.5365 162.2211 179.4593 C.3 778 ligands_prepared 0.0000
13 C13 228.0953 162.8411 180.7435 C.ar 778 ligands_prepared 0.0000
14 C14 227.4085 162.1064 181.7103 C.ar 778 ligands_prepared 0.0000
15 C15 227.0316 162.7295 182.9005 C.ar 778 ligands_prepared 0.0000
16 C16 227.3586 164.0765 183.0855 C.ar 778 ligands_prepared 0.0000
17 N17 228.0252 164.7933 182.1582 N.ar 778 ligands_prepared 0.0000
18 C18 228.3874 164.1869 181.0100 C.ar 778 ligands_prepared 0.0000
19 C19 227.0166 157.5097 177.2795 C.ar 778 ligands_prepared 0.0000
20 C20 226.1966 157.2645 176.1743 C.ar 778 ligands_prepared 0.0000
21 C21 225.3734 156.1393 176.1626 C.ar 778 ligands_prepared 0.0000
22 C22 225.3987 155.3007 177.2728 C.ar 778 ligands_prepared 0.0000
23 Cl23 224.3591 153.9354 177.2811 Cl 778 ligands_prepared 0.0000
24 C24 226.2113 155.5198 178.3807 C.ar 778 ligands_prepared 0.0000
25 C25 227.0350 156.6437 178.3771 C.ar 778 ligands_prepared 0.0000
26 H26 228.9803 158.1705 178.9314 H 778 ligands_prepared 0.0000
27 H27 229.2374 160.8110 177.4729 H 778 ligands_prepared 0.0000
28 H28 231.2980 159.3416 177.2982 H 778 ligands_prepared 0.0000
29 H29 232.8536 161.1048 178.1145 H 778 ligands_prepared 0.0000
30 H30 231.4078 161.8913 177.4934 H 778 ligands_prepared 0.0000
31 H31 232.4824 161.9165 180.2686 H 778 ligands_prepared 0.0000
32 H32 231.1798 162.9211 179.5920 H 778 ligands_prepared 0.0000
33 H33 230.3019 161.5528 181.3748 H 778 ligands_prepared 0.0000
34 H34 232.0027 159.8305 181.4345 H 778 ligands_prepared 0.0000
35 H35 230.3884 159.0849 181.3343 H 778 ligands_prepared 0.0000
36 H36 231.1091 157.9859 179.3988 H 778 ligands_prepared 0.0000
37 H37 232.6228 158.8677 179.3932 H 778 ligands_prepared 0.0000
38 H38 228.5619 160.2212 180.3157 H 778 ligands_prepared 0.0000
39 H39 229.1728 162.9153 178.8650 H 778 ligands_prepared 0.0000
40 H40 227.6518 162.0567 178.7881 H 778 ligands_prepared 0.0000
41 H41 227.1713 161.0511 181.5474 H 778 ligands_prepared 0.0000
42 H42 226.4922 162.1786 183.6725 H 778 ligands_prepared 0.0000
43 H43 227.0853 164.6127 184.0072 H 778 ligands_prepared 0.0000
44 H44 228.9316 164.8111 180.2853 H 778 ligands_prepared 0.0000
45 H45 226.1927 157.9559 175.3233 H 778 ligands_prepared 0.0000
46 H46 224.7274 155.9418 175.3010 H 778 ligands_prepared 0.0000
47 H47 226.2167 154.8410 179.2395 H 778 ligands_prepared 0.0000
48 H48 227.6826 156.8398 179.2374 H 778 ligands_prepared 0.0000
@<TRIPOS>BOND
      1     1     2    2
      2     2     3   am
      3     2    19    1
      4     3     4    1
      5     3    26    1
      6     4     5    1
      7     4    11    1
      8     4    27    1
      9     5     6    1
     10     5    10    1
     11     5    28    1
     12     6     7    1
     13     6    29    1
     14     6    30    1
     15     7     8    1
     16     7    31    1
     17     7    32    1
     18     8     9    1
     19     8    11    1
     20     8    33    1
     21     9    10    1
     22     9    34    1
     23     9    35    1
     24    10    36    1
     25    10    37    1
     26    11    12    1
     27    11    38    1
     28    12    13    1
     29    12    39    1
     30    12    40    1
     31    13    14   ar
     32    13    18   ar
     33    14    15   ar
     34    14    41    1
     35    15    16   ar
     36    15    42    1
     37    16    17   ar
     38    16    43    1
     39    17    18   ar
     40    18    44    1
     41    19    20   ar
     42    19    25   ar
     43    20    21   ar
     44    20    45    1
     45    21    22   ar
     46    21    46    1
     47    22    23    1
     48    22    24   ar
     49    24    25   ar
     50    24    47    1
     51    25    48    1
@<TRIPOS>MOLECULE
CHEMBL2179843_LIG
56 59 1 0 0
SMALL
USER_CHARGES

@<TRIPOS>ATOM
1 C1 225.7085 158.2387 176.0015 C.3 778 ligands_prepared 0.0000
2 N2 226.3438 157.2365 176.8735 N.3 778 ligands_prepared 0.0000
3 C3 226.8644 157.7971 178.1325 C.3 778 ligands_prepared 0.0000
4 C4 225.7791 155.9665 176.9186 C.ar 778 ligands_prepared 0.0000
5 C5 224.5296 155.7158 176.3006 C.ar 778 ligands_prepared 0.0000
6 C6 223.9175 154.4807 176.4249 C.ar 778 ligands_prepared 0.0000
7 C7 224.5292 153.4494 177.1446 C.ar 778 ligands_prepared 0.0000
8 C8 223.9759 152.0868 177.2382 C.2 778 ligands_prepared 0.0000
9 O9 224.6790 151.0817 177.1741 O.2 778 ligands_prepared 0.0000
10 N10 222.6139 151.9549 177.3693 N.am 778 ligands_prepared 0.0000
11 C11 221.7349 153.1171 177.5310 C.3 778 ligands_prepared 0.0000
12 C12 221.7193 153.5484 179.0210 C.3 778 ligands_prepared 0.0000
13 C13 220.8825 154.8292 179.1247 C.3 778 ligands_prepared 0.0000
14 C14 219.4366 154.5333 178.7032 C.3 778 ligands_prepared 0.0000
15 N15 219.3112 153.0964 178.2335 N.4 778 ligands_prepared 1.0000
16 C16 219.6473 152.1724 179.3878 C.3 778 ligands_prepared 0.0000
17 C17 221.0740 152.4545 179.8841 C.3 778 ligands_prepared 0.0000
18 C18 220.2724 152.8038 177.0808 C.3 778 ligands_prepared 0.0000
19 C19 219.8905 153.6309 175.8479 C.3 778 ligands_prepared 0.0000
20 C20 218.7821 153.0049 175.0726 C.ar 778 ligands_prepared 0.0000
21 C21 217.4584 153.4166 175.2533 C.ar 778 ligands_prepared 0.0000
22 C22 216.4514 152.8140 174.5051 C.ar 778 ligands_prepared 0.0000
23 C23 216.7986 151.8034 173.6011 C.ar 778 ligands_prepared 0.0000
24 N24 218.0691 151.3876 173.4345 N.ar 778 ligands_prepared 0.0000
25 C25 219.0425 151.9744 174.1583 C.ar 778 ligands_prepared 0.0000
26 C26 225.7405 153.7017 177.7978 C.ar 778 ligands_prepared 0.0000
27 C27 226.3625 154.9317 177.6891 C.ar 778 ligands_prepared 0.0000
28 H28 225.7550 157.9057 174.9472 H 778 ligands_prepared 0.0000
29 H29 224.6547 158.4381 176.2633 H 778 ligands_prepared 0.0000
30 H30 226.2561 159.1963 176.0538 H 778 ligands_prepared 0.0000
31 H31 227.2160 158.8334 177.9791 H 778 ligands_prepared 0.0000
32 H32 226.1147 157.8124 178.9418 H 778 ligands_prepared 0.0000
33 H33 227.7382 157.2112 178.4752 H 778 ligands_prepared 0.0000
34 H34 224.0339 156.4934 175.7207 H 778 ligands_prepared 0.0000
35 H35 222.9417 154.3249 175.9543 H 778 ligands_prepared 0.0000
36 H36 222.1716 151.0411 177.4218 H 778 ligands_prepared 0.0000
37 H37 222.1471 153.9567 176.9015 H 778 ligands_prepared 0.0000
38 H38 222.7620 153.7469 179.3722 H 778 ligands_prepared 0.0000
39 H39 221.3174 155.6392 178.5046 H 778 ligands_prepared 0.0000
40 H40 220.9129 155.2224 180.1618 H 778 ligands_prepared 0.0000
41 H41 219.0989 155.2160 177.8925 H 778 ligands_prepared 0.0000
42 H42 218.7280 154.6911 179.5516 H 778 ligands_prepared 0.0000
43 H43 218.3248 152.9252 177.9049 H 778 ligands_prepared 0.0000
44 H44 219.5293 151.1156 179.0510 H 778 ligands_prepared 0.0000
45 H45 218.8971 152.3204 180.1988 H 778 ligands_prepared 0.0000
46 H46 221.6797 151.5275 179.8750 H 778 ligands_prepared 0.0000
47 H47 221.0597 152.7696 180.9473 H 778 ligands_prepared 0.0000
48 H48 220.1693 151.7070 176.8440 H 778 ligands_prepared 0.0000
49 H49 219.6617 154.6835 176.1227 H 778 ligands_prepared 0.0000
50 H50 220.8027 153.7252 175.1971 H 778 ligands_prepared 0.0000
51 H51 217.2180 154.1983 175.9803 H 778 ligands_prepared 0.0000
52 H52 215.4111 153.1191 174.6185 H 778 ligands_prepared 0.0000
53 H53 216.0411 151.2977 172.9842 H 778 ligands_prepared 0.0000
54 H54 220.0595 151.5887 173.9978 H 778 ligands_prepared 0.0000
55 H55 226.2009 152.9066 178.3953 H 778 ligands_prepared 0.0000
56 H56 227.3116 155.0914 178.2010 H 778 ligands_prepared 0.0000
@<TRIPOS>BOND
      1     1     2    1
      2     1    28    1
      3     1    29    1
      4     1    30    1
      5     2     3    1
      6     2     4    1
      7     3    31    1
      8     3    32    1
      9     3    33    1
     10     4     5   ar
     11     4    27   ar
     12     5     6   ar
     13     5    34    1
     14     6     7   ar
     15     6    35    1
     16     7     8    1
     17     7    26   ar
     18     8     9    2
     19     8    10   am
     20    10    11    1
     21    10    36    1
     22    11    12    1
     23    11    18    1
     24    11    37    1
     25    12    13    1
     26    12    17    1
     27    12    38    1
     28    13    14    1
     29    13    39    1
     30    13    40    1
     31    14    15    1
     32    14    41    1
     33    14    42    1
     34    15    16    1
     35    15    18    1
     36    15    43    1
     37    16    17    1
     38    16    44    1
     39    16    45    1
     40    17    46    1
     41    17    47    1
     42    18    19    1
     43    18    48    1
     44    19    20    1
     45    19    49    1
     46    19    50    1
     47    20    21   ar
     48    20    25   ar
     49    21    22   ar
     50    21    51    1
     51    22    23   ar
     52    22    52    1
     53    23    24   ar
     54    23    53    1
     55    24    25   ar
     56    25    54    1
     57    26    27   ar
     58    26    55    1
     59    27    56    1
@<TRIPOS>MOLECULE
CHEMBL2179844_LIG
52 55 1 0 0
SMALL
USER_CHARGES

@<TRIPOS>ATOM
1 C1 226.5087 157.8210 175.6404 C.3 778 ligands_prepared 0.0000
2 O2 226.1735 157.1909 176.8728 O.3 778 ligands_prepared 0.0000
3 C3 225.6674 155.9364 176.8266 C.ar 778 ligands_prepared 0.0000
4 C4 225.6238 155.1239 175.6917 C.ar 778 ligands_prepared 0.0000
5 C5 225.0807 153.8483 175.8053 C.ar 778 ligands_prepared 0.0000
6 C6 224.5837 153.4023 177.0325 C.ar 778 ligands_prepared 0.0000
7 C7 224.0452 152.0285 177.1118 C.2 778 ligands_prepared 0.0000
8 O8 224.7129 151.0398 176.8324 O.2 778 ligands_prepared 0.0000
9 N9 222.7377 151.8863 177.5136 N.am 778 ligands_prepared 0.0000
10 C10 221.9166 153.0609 177.7866 C.3 778 ligands_prepared 0.0000
11 C11 221.8140 153.3383 179.3091 C.3 778 ligands_prepared 0.0000
12 C12 221.2110 154.7416 179.4630 C.3 778 ligands_prepared 0.0000
13 C13 219.8790 154.7981 178.6997 C.3 778 ligands_prepared 0.0000
14 N14 219.4744 153.4149 178.2271 N.4 778 ligands_prepared 1.0000
15 C15 219.4485 152.4974 179.4414 C.3 778 ligands_prepared 0.0000
16 C16 220.8758 152.3259 179.9833 C.3 778 ligands_prepared 0.0000
17 C17 220.4737 152.8212 177.2381 C.3 778 ligands_prepared 0.0000
18 C18 220.2540 153.3042 175.8014 C.3 778 ligands_prepared 0.0000
19 C19 219.0612 152.7658 175.0917 C.ar 778 ligands_prepared 0.0000
20 C20 217.7627 153.0991 175.4846 C.ar 778 ligands_prepared 0.0000
21 C21 216.6806 152.5576 174.7983 C.ar 778 ligands_prepared 0.0000
22 C22 216.9293 151.7130 173.7107 C.ar 778 ligands_prepared 0.0000
23 N23 218.1779 151.4202 173.2958 N.ar 778 ligands_prepared 0.0000
24 C24 219.2228 151.9373 173.9690 C.ar 778 ligands_prepared 0.0000
25 C25 224.6343 154.2266 178.1628 C.ar 778 ligands_prepared 0.0000
26 C26 225.1751 155.4974 178.0689 C.ar 778 ligands_prepared 0.0000
27 H27 225.6169 157.9648 175.0204 H 778 ligands_prepared 0.0000
28 H28 226.9054 158.7917 175.9744 H 778 ligands_prepared 0.0000
29 H29 227.2786 157.2573 175.1042 H 778 ligands_prepared 0.0000
30 H30 226.0060 155.4676 174.7317 H 778 ligands_prepared 0.0000
31 H31 225.0425 153.1892 174.9312 H 778 ligands_prepared 0.0000
32 H32 222.2977 150.9754 177.6051 H 778 ligands_prepared 0.0000
33 H33 222.3794 153.9552 177.2820 H 778 ligands_prepared 0.0000
34 H34 222.8269 153.2965 179.7735 H 778 ligands_prepared 0.0000
35 H35 221.0616 154.9802 180.5368 H 778 ligands_prepared 0.0000
36 H36 221.9093 155.5197 179.0960 H 778 ligands_prepared 0.0000
37 H37 219.9444 155.4858 177.8315 H 778 ligands_prepared 0.0000
38 H38 219.0626 155.1997 179.3469 H 778 ligands_prepared 0.0000
39 H39 218.5209 153.4595 177.7826 H 778 ligands_prepared 0.0000
40 H40 218.9972 151.5220 179.1490 H 778 ligands_prepared 0.0000
41 H41 218.7675 152.9363 180.2059 H 778 ligands_prepared 0.0000
42 H42 221.2350 151.2894 179.8342 H 778 ligands_prepared 0.0000
43 H43 220.8873 152.4686 181.0834 H 778 ligands_prepared 0.0000
44 H44 220.2767 151.7029 177.2297 H 778 ligands_prepared 0.0000
45 H45 221.1836 153.1185 175.2070 H 778 ligands_prepared 0.0000
46 H46 220.1916 154.4256 175.8363 H 778 ligands_prepared 0.0000
47 H47 217.5984 153.7874 176.3218 H 778 ligands_prepared 0.0000
48 H48 215.6574 152.7880 175.0989 H 778 ligands_prepared 0.0000
49 H49 216.1113 151.2560 173.1363 H 778 ligands_prepared 0.0000
50 H50 220.2200 151.6782 173.5871 H 778 ligands_prepared 0.0000
51 H51 224.2583 153.8669 179.1250 H 778 ligands_prepared 0.0000
52 H52 225.2231 156.1524 178.9381 H 778 ligands_prepared 0.0000
@<TRIPOS>BOND
      1     1     2    1
      2     1    27    1
      3     1    28    1
      4     1    29    1
      5     2     3    1
      6     3     4   ar
      7     3    26   ar
      8     4     5   ar
      9     4    30    1
     10     5     6   ar
     11     5    31    1
     12     6     7    1
     13     6    25   ar
     14     7     8    2
     15     7     9   am
     16     9    10    1
     17     9    32    1
     18    10    11    1
     19    10    17    1
     20    10    33    1
     21    11    12    1
     22    11    16    1
     23    11    34    1
     24    12    13    1
     25    12    35    1
     26    12    36    1
     27    13    14    1
     28    13    37    1
     29    13    38    1
     30    14    15    1
     31    14    17    1
     32    14    39    1
     33    15    16    1
     34    15    40    1
     35    15    41    1
     36    16    42    1
     37    16    43    1
     38    17    18    1
     39    17    44    1
     40    18    19    1
     41    18    45    1
     42    18    46    1
     43    19    20   ar
     44    19    24   ar
     45    20    21   ar
     46    20    47    1
     47    21    22   ar
     48    21    48    1
     49    22    23   ar
     50    22    49    1
     51    23    24   ar
     52    24    50    1
     53    25    26   ar
     54    25    51    1
     55    26    52    1
@<TRIPOS>MOLECULE
CHEMBL2179845_LIG
49 52 1 0 0
SMALL
USER_CHARGES

@<TRIPOS>ATOM
1 O1 222.0753 152.9592 176.3918 O.2 778 ligands_prepared 0.0000
2 C2 222.1498 153.5423 177.4679 C.2 778 ligands_prepared 0.0000
3 N3 223.2829 154.2423 177.8001 N.am 778 ligands_prepared 0.0000
4 C4 224.4256 154.2901 176.8946 C.3 778 ligands_prepared 0.0000
5 C5 224.8237 152.8698 176.4088 C.3 778 ligands_prepared 0.0000
6 C6 225.5058 152.0864 177.5399 C.3 778 ligands_prepared 0.0000
7 C7 226.8347 152.7627 177.9095 C.3 778 ligands_prepared 0.0000
8 N8 226.9057 154.1298 177.2510 N.4 778 ligands_prepared 1.0000
9 C9 226.9850 153.9414 175.7454 C.3 778 ligands_prepared 0.0000
10 C10 225.8242 153.0602 175.2591 C.3 778 ligands_prepared 0.0000
11 C11 225.6494 154.9075 177.6408 C.3 778 ligands_prepared 0.0000
12 C12 225.8213 156.3960 177.3307 C.3 778 ligands_prepared 0.0000
13 C13 226.5997 157.0734 178.4071 C.ar 778 ligands_prepared 0.0000
14 C14 227.0663 156.3538 179.5112 C.ar 778 ligands_prepared 0.0000
15 C15 227.8018 157.0126 180.4913 C.ar 778 ligands_prepared 0.0000
16 C16 228.0494 158.3824 180.3395 C.ar 778 ligands_prepared 0.0000
17 N17 227.5948 159.0862 179.2842 N.ar 778 ligands_prepared 0.0000
18 C18 226.8822 158.4452 178.3371 C.ar 778 ligands_prepared 0.0000
19 C19 221.0390 153.5554 178.4427 C.ar 778 ligands_prepared 0.0000
20 C20 221.2323 153.9652 179.7658 C.ar 778 ligands_prepared 0.0000
21 C21 220.1691 153.9574 180.6568 C.ar 778 ligands_prepared 0.0000
22 C22 218.9148 153.5350 180.1933 C.ar 778 ligands_prepared 0.0000
23 O23 217.9205 153.5622 181.1051 O.3 778 ligands_prepared 0.0000
24 C24 218.7068 153.1077 178.8777 C.ar 778 ligands_prepared 0.0000
25 C25 219.7847 153.1197 178.0025 C.ar 778 ligands_prepared 0.0000
26 H26 223.3722 154.7270 178.6914 H 778 ligands_prepared 0.0000
27 H27 224.1632 154.9240 175.9978 H 778 ligands_prepared 0.0000
28 H28 223.9197 152.3232 176.0543 H 778 ligands_prepared 0.0000
29 H29 225.6845 151.0375 177.2271 H 778 ligands_prepared 0.0000
30 H30 224.8432 152.0077 178.4245 H 778 ligands_prepared 0.0000
31 H31 227.7095 152.1602 177.5735 H 778 ligands_prepared 0.0000
32 H32 226.9472 152.8812 179.0109 H 778 ligands_prepared 0.0000
33 H33 227.7529 154.6537 177.5860 H 778 ligands_prepared 0.0000
34 H34 226.9753 154.9383 175.2504 H 778 ligands_prepared 0.0000
35 H35 227.9709 153.4822 175.5001 H 778 ligands_prepared 0.0000
36 H36 226.1953 152.0771 174.9064 H 778 ligands_prepared 0.0000
37 H37 225.3346 153.5144 174.3743 H 778 ligands_prepared 0.0000
38 H38 225.5198 154.7767 178.7536 H 778 ligands_prepared 0.0000
39 H39 224.8088 156.8667 177.2368 H 778 ligands_prepared 0.0000
40 H40 226.2705 156.5574 176.3251 H 778 ligands_prepared 0.0000
41 H41 226.8558 155.2839 179.6041 H 778 ligands_prepared 0.0000
42 H42 228.1792 156.4743 181.3616 H 778 ligands_prepared 0.0000
43 H43 228.6302 158.9464 181.0841 H 778 ligands_prepared 0.0000
44 H44 226.5245 159.0649 177.5029 H 778 ligands_prepared 0.0000
45 H45 222.2221 154.2852 180.1057 H 778 ligands_prepared 0.0000
46 H46 220.2955 154.2725 181.6919 H 778 ligands_prepared 0.0000
47 H47 218.2231 153.2901 182.0217 H 778 ligands_prepared 0.0000
48 H48 217.7217 152.7772 178.5484 H 778 ligands_prepared 0.0000
49 H49 219.6568 152.7925 176.9653 H 778 ligands_prepared 0.0000
@<TRIPOS>BOND
      1     1     2    2
      2     2     3   am
      3     2    19    1
      4     3     4    1
      5     3    26    1
      6     4     5    1
      7     4    11    1
      8     4    27    1
      9     5     6    1
     10     5    10    1
     11     5    28    1
     12     6     7    1
     13     6    29    1
     14     6    30    1
     15     7     8    1
     16     7    31    1
     17     7    32    1
     18     8     9    1
     19     8    11    1
     20     8    33    1
     21     9    10    1
     22     9    34    1
     23     9    35    1
     24    10    36    1
     25    10    37    1
     26    11    12    1
     27    11    38    1
     28    12    13    1
     29    12    39    1
     30    12    40    1
     31    13    14   ar
     32    13    18   ar
     33    14    15   ar
     34    14    41    1
     35    15    16   ar
     36    15    42    1
     37    16    17   ar
     38    16    43    1
     39    17    18   ar
     40    18    44    1
     41    19    20   ar
     42    19    25   ar
     43    20    21   ar
     44    20    45    1
     45    21    22   ar
     46    21    46    1
     47    22    23    1
     48    22    24   ar
     49    23    47    1
     50    24    25   ar
     51    24    48    1
     52    25    49    1
@<TRIPOS>MOLECULE
CHEMBL2179846_LIG
52 55 1 0 0
SMALL
USER_CHARGES

@<TRIPOS>ATOM
1 O1 223.6310 152.5598 176.3933 O.2 778 ligands_prepared 0.0000
2 C2 223.1909 153.4797 177.0720 C.2 778 ligands_prepared 0.0000
3 N3 223.8799 154.6675 177.1471 N.am 778 ligands_prepared 0.0000
4 C4 225.1163 154.8436 176.3858 C.3 778 ligands_prepared 0.0000
5 C5 226.2485 153.9492 176.9462 C.3 778 ligands_prepared 0.0000
6 C6 227.4718 154.1413 176.0363 C.3 778 ligands_prepared 0.0000
7 C7 227.9405 155.6017 176.1093 C.3 778 ligands_prepared 0.0000
8 N8 227.0009 156.4144 176.9790 N.4 778 ligands_prepared 1.0000
9 C9 227.0285 155.8512 178.3900 C.3 778 ligands_prepared 0.0000
10 C10 226.6275 154.3697 178.3725 C.3 778 ligands_prepared 0.0000
11 C11 225.5668 156.3425 176.4616 C.3 778 ligands_prepared 0.0000
12 C12 225.4348 157.0180 175.0936 C.3 778 ligands_prepared 0.0000
13 C13 226.0903 158.3549 175.0590 C.ar 778 ligands_prepared 0.0000
14 C14 225.7037 159.3673 175.9394 C.ar 778 ligands_prepared 0.0000
15 C15 226.3309 160.6087 175.8676 C.ar 778 ligands_prepared 0.0000
16 C16 227.3340 160.8009 174.9112 C.ar 778 ligands_prepared 0.0000
17 N17 227.7319 159.8202 174.0750 N.ar 778 ligands_prepared 0.0000
18 C18 227.1262 158.6205 174.1501 C.ar 778 ligands_prepared 0.0000
19 C19 221.9345 153.3675 177.8493 C.ar 778 ligands_prepared 0.0000
20 C20 220.7630 152.8725 177.2757 C.ar 778 ligands_prepared 0.0000
21 C21 219.6010 152.7996 178.0375 C.ar 778 ligands_prepared 0.0000
22 C22 219.6094 153.2135 179.3704 C.ar 778 ligands_prepared 0.0000
23 C23 218.3622 153.1451 180.2030 C.3 778 ligands_prepared 0.0000
24 O24 218.4322 154.0051 181.3203 O.3 778 ligands_prepared 0.0000
25 C25 220.7922 153.6805 179.9490 C.ar 778 ligands_prepared 0.0000
26 C26 221.9566 153.7525 179.1927 C.ar 778 ligands_prepared 0.0000
27 H27 223.5391 155.4591 177.6850 H 778 ligands_prepared 0.0000
28 H28 224.9229 154.5625 175.3108 H 778 ligands_prepared 0.0000
29 H29 225.9247 152.8804 176.9352 H 778 ligands_prepared 0.0000
30 H30 228.2894 153.4566 176.3434 H 778 ligands_prepared 0.0000
31 H31 227.2398 153.8524 174.9914 H 778 ligands_prepared 0.0000
32 H32 228.9679 155.6766 176.5407 H 778 ligands_prepared 0.0000
33 H33 228.0001 156.0637 175.0993 H 778 ligands_prepared 0.0000
34 H34 227.3079 157.4217 176.9886 H 778 ligands_prepared 0.0000
35 H35 226.3483 156.4562 179.0346 H 778 ligands_prepared 0.0000
36 H36 228.0511 155.9924 178.8093 H 778 ligands_prepared 0.0000
37 H37 227.4644 153.7385 178.7398 H 778 ligands_prepared 0.0000
38 H38 225.8053 154.1735 179.0883 H 778 ligands_prepared 0.0000
39 H39 224.9288 156.8920 177.2099 H 778 ligands_prepared 0.0000
40 H40 224.3406 157.1143 174.8554 H 778 ligands_prepared 0.0000
41 H41 225.8136 156.3571 174.2808 H 778 ligands_prepared 0.0000
42 H42 224.9217 159.1899 176.6832 H 778 ligands_prepared 0.0000
43 H43 226.0468 161.4166 176.5426 H 778 ligands_prepared 0.0000
44 H44 227.8472 161.7670 174.8028 H 778 ligands_prepared 0.0000
45 H45 227.4911 157.8491 173.4558 H 778 ligands_prepared 0.0000
46 H46 220.7519 152.5322 176.2375 H 778 ligands_prepared 0.0000
47 H47 218.6852 152.4194 177.5784 H 778 ligands_prepared 0.0000
48 H48 217.4631 153.4012 179.6016 H 778 ligands_prepared 0.0000
49 H49 218.2133 152.1468 180.6680 H 778 ligands_prepared 0.0000
50 H50 218.3991 153.4990 182.1650 H 778 ligands_prepared 0.0000
51 H51 220.8088 153.9940 180.9963 H 778 ligands_prepared 0.0000
52 H52 222.8869 154.1108 179.6440 H 778 ligands_prepared 0.0000
@<TRIPOS>BOND
      1     1     2    2
      2     2     3   am
      3     2    19    1
      4     3     4    1
      5     3    27    1
      6     4     5    1
      7     4    11    1
      8     4    28    1
      9     5     6    1
     10     5    10    1
     11     5    29    1
     12     6     7    1
     13     6    30    1
     14     6    31    1
     15     7     8    1
     16     7    32    1
     17     7    33    1
     18     8     9    1
     19     8    11    1
     20     8    34    1
     21     9    10    1
     22     9    35    1
     23     9    36    1
     24    10    37    1
     25    10    38    1
     26    11    12    1
     27    11    39    1
     28    12    13    1
     29    12    40    1
     30    12    41    1
     31    13    14   ar
     32    13    18   ar
     33    14    15   ar
     34    14    42    1
     35    15    16   ar
     36    15    43    1
     37    16    17   ar
     38    16    44    1
     39    17    18   ar
     40    18    45    1
     41    19    20   ar
     42    19    26   ar
     43    20    21   ar
     44    20    46    1
     45    21    22   ar
     46    21    47    1
     47    22    23    1
     48    22    25   ar
     49    23    24    1
     50    23    48    1
     51    23    49    1
     52    24    50    1
     53    25    26   ar
     54    25    51    1
     55    26    52    1
@<TRIPOS>MOLECULE
CHEMBL2179847_LIG
49 52 1 0 0
SMALL
USER_CHARGES

@<TRIPOS>ATOM
1 O1 222.3146 152.7750 176.1774 O.2 778 ligands_prepared 0.0000
2 C2 222.2643 153.4186 177.2186 C.2 778 ligands_prepared 0.0000
3 N3 223.3059 154.2280 177.5953 N.am 778 ligands_prepared 0.0000
4 C4 224.4985 154.3568 176.7649 C.3 778 ligands_prepared 0.0000
5 C5 225.0525 152.9719 176.3371 C.3 778 ligands_prepared 0.0000
6 C6 226.1539 153.2315 175.2989 C.3 778 ligands_prepared 0.0000
7 C7 227.2134 154.1618 175.9070 C.3 778 ligands_prepared 0.0000
8 N8 226.9356 154.3851 177.3830 N.4 778 ligands_prepared 1.0000
9 C9 226.8621 153.0360 178.0768 C.3 778 ligands_prepared 0.0000
10 C10 225.6651 152.2399 177.5378 C.3 778 ligands_prepared 0.0000
11 C11 225.6013 155.0972 177.5874 C.3 778 ligands_prepared 0.0000
12 C12 225.7128 156.5742 177.2027 C.3 778 ligands_prepared 0.0000
13 C13 226.6044 157.3070 178.1476 C.ar 778 ligands_prepared 0.0000
14 C14 227.0815 156.6846 179.3051 C.ar 778 ligands_prepared 0.0000
15 C15 227.9224 157.3892 180.1594 C.ar 778 ligands_prepared 0.0000
16 C16 228.2578 158.7098 179.8342 C.ar 778 ligands_prepared 0.0000
17 N17 227.7896 159.3229 178.7298 N.ar 778 ligands_prepared 0.0000
18 C18 226.9770 158.6366 177.9024 C.ar 778 ligands_prepared 0.0000
19 C19 221.0799 153.4048 178.1089 C.ar 778 ligands_prepared 0.0000
20 C20 219.8052 153.1029 177.6216 C.ar 778 ligands_prepared 0.0000
21 C21 218.7108 153.1028 178.4751 C.ar 778 ligands_prepared 0.0000
22 C22 218.8984 153.4051 179.8298 C.ar 778 ligands_prepared 0.0000
23 O23 217.7915 153.3797 180.5921 O.3 778 ligands_prepared 0.0000
24 C24 220.1847 153.7119 180.3025 C.ar 778 ligands_prepared 0.0000
25 F25 220.3511 154.0012 181.5849 F 778 ligands_prepared 0.0000
26 C26 221.2834 153.7172 179.4544 C.ar 778 ligands_prepared 0.0000
27 H27 223.2882 154.7479 178.4712 H 778 ligands_prepared 0.0000
28 H28 224.2461 154.9504 175.8389 H 778 ligands_prepared 0.0000
29 H29 224.2333 152.3607 175.8917 H 778 ligands_prepared 0.0000
30 H30 226.6107 152.2726 174.9780 H 778 ligands_prepared 0.0000
31 H31 225.7333 153.6704 174.3718 H 778 ligands_prepared 0.0000
32 H32 228.2378 153.7307 175.8043 H 778 ligands_prepared 0.0000
33 H33 227.2395 155.1464 175.3870 H 778 ligands_prepared 0.0000
34 H34 227.7044 154.9695 177.8008 H 778 ligands_prepared 0.0000
35 H35 227.8245 152.4969 177.9084 H 778 ligands_prepared 0.0000
36 H36 226.7904 153.1963 179.1765 H 778 ligands_prepared 0.0000
37 H37 224.9100 152.0738 178.3305 H 778 ligands_prepared 0.0000
38 H38 225.9867 151.2195 177.2407 H 778 ligands_prepared 0.0000
39 H39 225.3627 155.0249 178.6892 H 778 ligands_prepared 0.0000
40 H40 224.6892 157.0308 177.2151 H 778 ligands_prepared 0.0000
41 H41 226.0342 156.7012 176.1441 H 778 ligands_prepared 0.0000
42 H42 226.7955 155.6547 179.5379 H 778 ligands_prepared 0.0000
43 H43 228.3144 156.9246 181.0658 H 778 ligands_prepared 0.0000
44 H44 228.9223 159.3077 180.4754 H 778 ligands_prepared 0.0000
45 H45 226.6149 159.1829 177.0202 H 778 ligands_prepared 0.0000
46 H46 219.6606 152.8701 176.5615 H 778 ligands_prepared 0.0000
47 H47 217.7103 152.8652 178.1067 H 778 ligands_prepared 0.0000
48 H48 216.9595 153.6891 180.1278 H 778 ligands_prepared 0.0000
49 H49 222.2877 153.9569 179.8222 H 778 ligands_prepared 0.0000
@<TRIPOS>BOND
      1     1     2    2
      2     2     3   am
      3     2    19    1
      4     3     4    1
      5     3    27    1
      6     4     5    1
      7     4    11    1
      8     4    28    1
      9     5     6    1
     10     5    10    1
     11     5    29    1
     12     6     7    1
     13     6    30    1
     14     6    31    1
     15     7     8    1
     16     7    32    1
     17     7    33    1
     18     8     9    1
     19     8    11    1
     20     8    34    1
     21     9    10    1
     22     9    35    1
     23     9    36    1
     24    10    37    1
     25    10    38    1
     26    11    12    1
     27    11    39    1
     28    12    13    1
     29    12    40    1
     30    12    41    1
     31    13    14   ar
     32    13    18   ar
     33    14    15   ar
     34    14    42    1
     35    15    16   ar
     36    15    43    1
     37    16    17   ar
     38    16    44    1
     39    17    18   ar
     40    18    45    1
     41    19    20   ar
     42    19    26   ar
     43    20    21   ar
     44    20    46    1
     45    21    22   ar
     46    21    47    1
     47    22    23    1
     48    22    24   ar
     49    23    48    1
     50    24    25    1
     51    24    26   ar
     52    26    49    1
@<TRIPOS>MOLECULE
CHEMBL2179848_LIG
48 51 1 0 0
SMALL
USER_CHARGES

@<TRIPOS>ATOM
1 O1 225.8932 161.9114 173.0190 O.2 778 ligands_prepared 0.0000
2 C2 224.9726 161.1103 172.9888 C.2 778 ligands_prepared 0.0000
3 N3 225.0568 159.8910 173.6077 N.am 778 ligands_prepared 0.0000
4 C4 226.2216 159.5426 174.4167 C.3 778 ligands_prepared 0.0000
5 C5 227.5272 159.7408 173.6079 C.3 778 ligands_prepared 0.0000
6 C6 228.7010 159.4863 174.5630 C.3 778 ligands_prepared 0.0000
7 C7 228.6121 158.0561 175.1114 C.3 778 ligands_prepared 0.0000
8 N8 227.4237 157.3287 174.5107 N.4 778 ligands_prepared 1.0000
9 C9 227.5774 157.2998 173.0015 C.3 778 ligands_prepared 0.0000
10 C10 227.6073 158.7337 172.4518 C.3 778 ligands_prepared 0.0000
11 C11 226.1134 158.0377 174.8400 C.3 778 ligands_prepared 0.0000
12 C12 225.7685 157.8890 176.3237 C.3 778 ligands_prepared 0.0000
13 C13 225.8290 156.4616 176.7513 C.ar 778 ligands_prepared 0.0000
14 C14 224.9174 155.5282 176.2505 C.ar 778 ligands_prepared 0.0000
15 C15 225.0134 154.2000 176.6518 C.ar 778 ligands_prepared 0.0000
16 C16 226.0189 153.8431 177.5597 C.ar 778 ligands_prepared 0.0000
17 N17 226.8868 154.7411 178.0664 N.ar 778 ligands_prepared 0.0000
18 C18 226.7924 156.0254 177.6730 C.ar 778 ligands_prepared 0.0000
19 C19 223.6699 161.3903 172.3265 C.ar 778 ligands_prepared 0.0000
20 C20 222.4775 160.9256 172.8790 C.ar 778 ligands_prepared 0.0000
21 C21 221.2661 161.2038 172.2445 C.ar 778 ligands_prepared 0.0000
22 C22 221.2813 161.9442 171.0702 C.ar 778 ligands_prepared 0.0000
23 Cl23 219.7945 162.2941 170.2992 Cl 778 ligands_prepared 0.0000
24 C24 222.4533 162.4169 170.4854 C.ar 778 ligands_prepared 0.0000
25 C25 223.6384 162.1196 171.1409 C.ar 778 ligands_prepared 0.0000
26 Cl26 225.1158 162.6660 170.4793 Cl 778 ligands_prepared 0.0000
27 H27 224.2934 159.2153 173.5644 H 778 ligands_prepared 0.0000
28 H28 226.2435 160.1972 175.3351 H 778 ligands_prepared 0.0000
29 H29 227.5705 160.7837 173.2120 H 778 ligands_prepared 0.0000
30 H30 228.7127 160.2256 175.3883 H 778 ligands_prepared 0.0000
31 H31 229.6639 159.6406 174.0319 H 778 ligands_prepared 0.0000
32 H32 228.5247 158.0484 176.2213 H 778 ligands_prepared 0.0000
33 H33 229.5346 157.4743 174.8711 H 778 ligands_prepared 0.0000
34 H34 227.3833 156.3480 174.8912 H 778 ligands_prepared 0.0000
35 H35 228.5112 156.7465 172.7489 H 778 ligands_prepared 0.0000
36 H36 226.7442 156.7060 172.5617 H 778 ligands_prepared 0.0000
37 H37 228.5362 158.9021 171.8676 H 778 ligands_prepared 0.0000
38 H38 226.7909 158.8915 171.7194 H 778 ligands_prepared 0.0000
39 H39 225.3173 157.5335 174.2260 H 778 ligands_prepared 0.0000
40 H40 224.7366 158.2975 176.4955 H 778 ligands_prepared 0.0000
41 H41 226.4048 158.5417 176.9626 H 778 ligands_prepared 0.0000
42 H42 224.1304 155.8411 175.5620 H 778 ligands_prepared 0.0000
43 H43 224.3183 153.4494 176.2726 H 778 ligands_prepared 0.0000
44 H44 226.1394 152.8056 177.9048 H 778 ligands_prepared 0.0000
45 H45 227.5110 156.7213 178.1273 H 778 ligands_prepared 0.0000
46 H46 222.4920 160.3490 173.8114 H 778 ligands_prepared 0.0000
47 H47 220.3272 160.8415 172.6803 H 778 ligands_prepared 0.0000
48 H48 222.4421 163.0008 169.5592 H 778 ligands_prepared 0.0000
@<TRIPOS>BOND
      1     1     2    2
      2     2     3   am
      3     2    19    1
      4     3     4    1
      5     3    27    1
      6     4     5    1
      7     4    11    1
      8     4    28    1
      9     5     6    1
     10     5    10    1
     11     5    29    1
     12     6     7    1
     13     6    30    1
     14     6    31    1
     15     7     8    1
     16     7    32    1
     17     7    33    1
     18     8     9    1
     19     8    11    1
     20     8    34    1
     21     9    10    1
     22     9    35    1
     23     9    36    1
     24    10    37    1
     25    10    38    1
     26    11    12    1
     27    11    39    1
     28    12    13    1
     29    12    40    1
     30    12    41    1
     31    13    14   ar
     32    13    18   ar
     33    14    15   ar
     34    14    42    1
     35    15    16   ar
     36    15    43    1
     37    16    17   ar
     38    16    44    1
     39    17    18   ar
     40    18    45    1
     41    19    20   ar
     42    19    25   ar
     43    20    21   ar
     44    20    46    1
     45    21    22   ar
     46    21    47    1
     47    22    23    1
     48    22    24   ar
     49    24    25   ar
     50    24    48    1
     51    25    26    1
@<TRIPOS>MOLECULE
CHEMBL2179849_LIG
48 51 1 0 0
SMALL
USER_CHARGES

@<TRIPOS>ATOM
1 O1 221.7175 151.5810 177.6217 O.2 778 ligands_prepared 0.0000
2 C2 221.9956 152.4617 176.8214 C.2 778 ligands_prepared 0.0000
3 N3 221.0843 152.8723 175.8827 N.am 778 ligands_prepared 0.0000
4 C4 219.7474 152.2767 175.8519 C.3 778 ligands_prepared 0.0000
5 C5 219.4013 151.7570 174.4358 C.3 778 ligands_prepared 0.0000
6 C6 219.3682 152.9096 173.4225 C.3 778 ligands_prepared 0.0000
7 C7 218.4010 154.0001 173.9036 C.3 778 ligands_prepared 0.0000
8 N8 217.6689 153.5275 175.1471 N.4 778 ligands_prepared 1.0000
9 C9 216.9685 152.2189 174.8334 C.3 778 ligands_prepared 0.0000
10 C10 218.0022 151.1279 174.5193 C.3 778 ligands_prepared 0.0000
11 C11 218.6890 153.3532 176.2685 C.3 778 ligands_prepared 0.0000
12 C12 217.9956 152.9738 177.5803 C.3 778 ligands_prepared 0.0000
13 C13 218.7857 153.4044 178.7678 C.ar 778 ligands_prepared 0.0000
14 C14 220.1074 153.8374 178.6433 C.ar 778 ligands_prepared 0.0000
15 C15 220.8051 154.2301 179.7810 C.ar 778 ligands_prepared 0.0000
16 C16 220.1547 154.1829 181.0204 C.ar 778 ligands_prepared 0.0000
17 N17 218.8741 153.7780 181.1482 N.ar 778 ligands_prepared 0.0000
18 C18 218.2026 153.3987 180.0467 C.ar 778 ligands_prepared 0.0000
19 C19 223.3062 153.1644 176.8278 C.ar 778 ligands_prepared 0.0000
20 C20 223.3512 154.5091 176.4620 C.ar 778 ligands_prepared 0.0000
21 C21 224.5726 155.1826 176.4351 C.ar 778 ligands_prepared 0.0000
22 C22 225.7292 154.4872 176.7659 C.ar 778 ligands_prepared 0.0000
23 Cl23 227.2194 155.3146 176.7266 Cl 778 ligands_prepared 0.0000
24 C24 225.6796 153.1444 177.1182 C.ar 778 ligands_prepared 0.0000
25 Cl25 227.1051 152.2950 177.5046 Cl 778 ligands_prepared 0.0000
26 C26 224.4689 152.4655 177.1575 C.ar 778 ligands_prepared 0.0000
27 H27 221.3080 153.5756 175.1832 H 778 ligands_prepared 0.0000
28 H28 219.7193 151.4169 176.5815 H 778 ligands_prepared 0.0000
29 H29 220.1488 150.9905 174.1189 H 778 ligands_prepared 0.0000
30 H30 219.0590 152.5263 172.4267 H 778 ligands_prepared 0.0000
31 H31 220.3782 153.3303 173.2507 H 778 ligands_prepared 0.0000
32 H32 217.6472 154.2523 173.1217 H 778 ligands_prepared 0.0000
33 H33 218.9330 154.9511 174.1364 H 778 ligands_prepared 0.0000
34 H34 216.9594 154.2466 175.4419 H 778 ligands_prepared 0.0000
35 H35 216.2823 152.3872 173.9686 H 778 ligands_prepared 0.0000
36 H36 216.3156 151.9341 175.6877 H 778 ligands_prepared 0.0000
37 H37 217.9739 150.3264 175.2846 H 778 ligands_prepared 0.0000
38 H38 217.7489 150.6196 173.5660 H 778 ligands_prepared 0.0000
39 H39 219.1975 154.3502 176.3950 H 778 ligands_prepared 0.0000
40 H40 217.8529 151.8598 177.5946 H 778 ligands_prepared 0.0000
41 H41 216.9530 153.3608 177.6160 H 778 ligands_prepared 0.0000
42 H42 220.5906 153.8752 177.6635 H 778 ligands_prepared 0.0000
43 H43 221.8402 154.5689 179.7130 H 778 ligands_prepared 0.0000
44 H44 220.6625 154.4812 181.9481 H 778 ligands_prepared 0.0000
45 H45 217.1605 153.0824 180.1975 H 778 ligands_prepared 0.0000
46 H46 222.4277 155.0366 176.1955 H 778 ligands_prepared 0.0000
47 H47 224.6075 156.2420 176.1532 H 778 ligands_prepared 0.0000
48 H48 224.4254 151.4069 177.4336 H 778 ligands_prepared 0.0000
@<TRIPOS>BOND
      1     1     2    2
      2     2     3   am
      3     2    19    1
      4     3     4    1
      5     3    27    1
      6     4     5    1
      7     4    11    1
      8     4    28    1
      9     5     6    1
     10     5    10    1
     11     5    29    1
     12     6     7    1
     13     6    30    1
     14     6    31    1
     15     7     8    1
     16     7    32    1
     17     7    33    1
     18     8     9    1
     19     8    11    1
     20     8    34    1
     21     9    10    1
     22     9    35    1
     23     9    36    1
     24    10    37    1
     25    10    38    1
     26    11    12    1
     27    11    39    1
     28    12    13    1
     29    12    40    1
     30    12    41    1
     31    13    14   ar
     32    13    18   ar
     33    14    15   ar
     34    14    42    1
     35    15    16   ar
     36    15    43    1
     37    16    17   ar
     38    16    44    1
     39    17    18   ar
     40    18    45    1
     41    19    20   ar
     42    19    26   ar
     43    20    21   ar
     44    20    46    1
     45    21    22   ar
     46    21    47    1
     47    22    23    1
     48    22    24   ar
     49    24    25    1
     50    24    26   ar
     51    26    48    1
@<TRIPOS>MOLECULE
CHEMBL2179850_LIG
52 55 1 0 0
SMALL
USER_CHARGES

@<TRIPOS>ATOM
1 C1 227.3768 164.7957 182.5352 C.3 778 ligands_prepared 0.0000
2 O2 227.3967 163.3960 182.8179 O.3 778 ligands_prepared 0.0000
3 C3 227.7265 162.5557 181.8234 C.ar 778 ligands_prepared 0.0000
4 C4 228.4184 162.9106 180.6584 C.ar 778 ligands_prepared 0.0000
5 C5 228.6882 161.9049 179.7393 C.ar 778 ligands_prepared 0.0000
6 F6 229.3426 162.2076 178.6339 F 778 ligands_prepared 0.0000
7 C7 228.3024 160.5744 179.9238 C.ar 778 ligands_prepared 0.0000
8 C8 228.6122 159.5439 178.9092 C.2 778 ligands_prepared 0.0000
9 O9 229.7542 159.2363 178.6036 O.2 778 ligands_prepared 0.0000
10 N10 227.5268 158.9453 178.3282 N.am 778 ligands_prepared 0.0000
11 C11 227.6887 157.9055 177.3168 C.3 778 ligands_prepared 0.0000
12 C12 227.7982 158.5287 175.8979 C.3 778 ligands_prepared 0.0000
13 C13 228.2480 157.4067 174.9530 C.3 778 ligands_prepared 0.0000
14 C14 227.2589 156.2362 175.0608 C.3 778 ligands_prepared 0.0000
15 N15 226.0602 156.6244 175.9050 N.4 778 ligands_prepared 1.0000
16 C16 225.4471 157.8754 175.2934 C.3 778 ligands_prepared 0.0000
17 C17 226.4314 159.0482 175.4292 C.3 778 ligands_prepared 0.0000
18 C18 226.4437 156.9647 177.3427 C.3 778 ligands_prepared 0.0000
19 C19 226.5891 155.7217 178.2246 C.3 778 ligands_prepared 0.0000
20 C20 225.9143 154.4807 177.7530 C.ar 778 ligands_prepared 0.0000
21 C21 224.5386 154.4575 177.5066 C.ar 778 ligands_prepared 0.0000
22 C22 223.9438 153.2811 177.0624 C.ar 778 ligands_prepared 0.0000
23 C23 224.7442 152.1454 176.8942 C.ar 778 ligands_prepared 0.0000
24 N24 226.0643 152.1463 177.1653 N.ar 778 ligands_prepared 0.0000
25 C25 226.6358 153.2881 177.5933 C.ar 778 ligands_prepared 0.0000
26 C26 227.6000 160.2804 181.0999 C.ar 778 ligands_prepared 0.0000
27 F27 227.2109 159.0331 181.2925 F 778 ligands_prepared 0.0000
28 C28 227.2937 161.2335 182.0554 C.ar 778 ligands_prepared 0.0000
29 H29 226.6188 165.0330 181.7816 H 778 ligands_prepared 0.0000
30 H30 228.3693 165.1474 182.2332 H 778 ligands_prepared 0.0000
31 H31 227.1004 165.2235 183.5115 H 778 ligands_prepared 0.0000
32 H32 228.7442 163.9377 180.4803 H 778 ligands_prepared 0.0000
33 H33 226.5742 159.1869 178.6011 H 778 ligands_prepared 0.0000
34 H34 228.6273 157.3231 177.5302 H 778 ligands_prepared 0.0000
35 H35 228.5450 159.3563 175.9029 H 778 ligands_prepared 0.0000
36 H36 228.2998 157.7816 173.9088 H 778 ligands_prepared 0.0000
37 H37 229.2785 157.0730 175.1854 H 778 ligands_prepared 0.0000
38 H38 226.8913 155.9252 174.0534 H 778 ligands_prepared 0.0000
39 H39 227.7465 155.3380 175.4916 H 778 ligands_prepared 0.0000
40 H40 225.3588 155.8403 175.9033 H 778 ligands_prepared 0.0000
41 H41 225.2006 157.6657 174.2272 H 778 ligands_prepared 0.0000
42 H42 224.4768 158.0881 175.7967 H 778 ligands_prepared 0.0000
43 H43 226.5343 159.5738 174.4565 H 778 ligands_prepared 0.0000
44 H44 226.0365 159.8175 176.1207 H 778 ligands_prepared 0.0000
45 H45 225.5645 157.5489 177.7659 H 778 ligands_prepared 0.0000
46 H46 227.6875 155.5294 178.3514 H 778 ligands_prepared 0.0000
47 H47 226.2602 155.9708 179.2648 H 778 ligands_prepared 0.0000
48 H48 223.9317 155.3550 177.6612 H 778 ligands_prepared 0.0000
49 H49 222.8747 153.2417 176.8498 H 778 ligands_prepared 0.0000
50 H50 224.3235 151.1936 176.5395 H 778 ligands_prepared 0.0000
51 H51 227.7118 153.2328 177.8218 H 778 ligands_prepared 0.0000
52 H52 226.7473 160.9886 182.9689 H 778 ligands_prepared 0.0000
@<TRIPOS>BOND
      1     1     2    1
      2     1    29    1
      3     1    30    1
      4     1    31    1
      5     2     3    1
      6     3     4   ar
      7     3    28   ar
      8     4     5   ar
      9     4    32    1
     10     5     6    1
     11     5     7   ar
     12     7     8    1
     13     7    26   ar
     14     8     9    2
     15     8    10   am
     16    10    11    1
     17    10    33    1
     18    11    12    1
     19    11    18    1
     20    11    34    1
     21    12    13    1
     22    12    17    1
     23    12    35    1
     24    13    14    1
     25    13    36    1
     26    13    37    1
     27    14    15    1
     28    14    38    1
     29    14    39    1
     30    15    16    1
     31    15    18    1
     32    15    40    1
     33    16    17    1
     34    16    41    1
     35    16    42    1
     36    17    43    1
     37    17    44    1
     38    18    19    1
     39    18    45    1
     40    19    20    1
     41    19    46    1
     42    19    47    1
     43    20    21   ar
     44    20    25   ar
     45    21    22   ar
     46    21    48    1
     47    22    23   ar
     48    22    49    1
     49    23    24   ar
     50    23    50    1
     51    24    25   ar
     52    25    51    1
     53    26    27    1
     54    26    28   ar
     55    28    52    1
@<TRIPOS>MOLECULE
CHEMBL2179851_LIG
54 58 1 0 0
SMALL
USER_CHARGES

@<TRIPOS>ATOM
1 O1 223.2934 152.4001 177.1969 O.2 778 ligands_prepared 0.0000
2 C2 223.4839 153.6065 177.1331 C.2 778 ligands_prepared 0.0000
3 N3 222.5275 154.5281 177.4670 N.am 778 ligands_prepared 0.0000
4 C4 221.1892 154.2263 177.9697 C.3 778 ligands_prepared 0.0000
5 C5 221.2171 153.6068 179.3957 C.3 778 ligands_prepared 0.0000
6 C6 221.5771 152.1171 179.3397 C.3 778 ligands_prepared 0.0000
7 C7 220.4948 151.3561 178.5566 C.3 778 ligands_prepared 0.0000
8 N8 219.5400 152.3424 177.9035 N.4 778 ligands_prepared 1.0000
9 C9 218.7998 153.1027 178.9875 C.3 778 ligands_prepared 0.0000
10 C10 219.7959 153.7482 179.9631 C.3 778 ligands_prepared 0.0000
11 C11 220.3639 153.2888 177.0381 C.3 778 ligands_prepared 0.0000
12 C12 219.4565 154.0765 176.0826 C.3 778 ligands_prepared 0.0000
13 C13 218.6713 153.1017 175.2705 C.ar 778 ligands_prepared 0.0000
14 C14 219.3106 152.1989 174.4152 C.ar 778 ligands_prepared 0.0000
15 C15 218.5415 151.3662 173.6080 C.ar 778 ligands_prepared 0.0000
16 C16 217.1474 151.4524 173.6894 C.ar 778 ligands_prepared 0.0000
17 N17 216.5225 152.2996 174.5319 N.ar 778 ligands_prepared 0.0000
18 C18 217.2682 153.1079 175.3083 C.ar 778 ligands_prepared 0.0000
19 C19 224.7808 154.1607 176.6576 C.ar 778 ligands_prepared 0.0000
20 C20 225.9391 153.3834 176.6639 C.ar 778 ligands_prepared 0.0000
21 C21 227.1516 153.9288 176.2472 C.ar 778 ligands_prepared 0.0000
22 C22 227.1776 155.2554 175.8230 C.ar 778 ligands_prepared 0.0000
23 C23 226.0096 156.0399 175.8400 C.ar 778 ligands_prepared 0.0000
24 C24 224.7993 155.4964 176.2537 C.ar 778 ligands_prepared 0.0000
25 O25 226.0012 157.3409 175.4331 O.3 778 ligands_prepared 0.0000
26 C26 227.3072 157.9285 175.4148 C.3 778 ligands_prepared 0.0000
27 C27 228.2863 156.9958 174.7205 C.3 778 ligands_prepared 0.0000
28 O28 228.3795 155.7529 175.4285 O.3 778 ligands_prepared 0.0000
29 H29 222.7599 155.5278 177.4529 H 778 ligands_prepared 0.0000
30 H30 220.6564 155.2238 178.0368 H 778 ligands_prepared 0.0000
31 H31 221.9494 154.1569 180.0315 H 778 ligands_prepared 0.0000
32 H32 222.5715 151.9759 178.8689 H 778 ligands_prepared 0.0000
33 H33 221.6736 151.7044 180.3630 H 778 ligands_prepared 0.0000
34 H34 219.9084 150.6803 179.2186 H 778 ligands_prepared 0.0000
35 H35 220.9444 150.7163 177.7622 H 778 ligands_prepared 0.0000
36 H36 218.8488 151.8241 177.2993 H 778 ligands_prepared 0.0000
37 H37 218.1218 152.3921 179.5149 H 778 ligands_prepared 0.0000
38 H38 218.1415 153.8652 178.5118 H 778 ligands_prepared 0.0000
39 H39 219.7337 153.2719 180.9620 H 778 ligands_prepared 0.0000
40 H40 219.5384 154.8127 180.1368 H 778 ligands_prepared 0.0000
41 H41 221.0499 152.6359 176.4211 H 778 ligands_prepared 0.0000
42 H42 218.7721 154.7488 176.6535 H 778 ligands_prepared 0.0000
43 H43 220.0424 154.7698 175.4384 H 778 ligands_prepared 0.0000
44 H44 220.4019 152.1563 174.3765 H 778 ligands_prepared 0.0000
45 H45 219.0150 150.6629 172.9212 H 778 ligands_prepared 0.0000
46 H46 216.4943 150.8243 173.0657 H 778 ligands_prepared 0.0000
47 H47 216.7186 153.7834 175.9763 H 778 ligands_prepared 0.0000
48 H48 225.9042 152.3433 176.9971 H 778 ligands_prepared 0.0000
49 H49 228.0643 153.3311 176.2457 H 778 ligands_prepared 0.0000
50 H50 223.8891 156.1014 176.2656 H 778 ligands_prepared 0.0000
51 H51 227.6002 158.1513 176.4593 H 778 ligands_prepared 0.0000
52 H52 227.1441 158.8755 174.8634 H 778 ligands_prepared 0.0000
53 H53 227.9874 156.7685 173.6797 H 778 ligands_prepared 0.0000
54 H54 229.3302 157.3699 174.7378 H 778 ligands_prepared 0.0000
@<TRIPOS>BOND
      1     1     2    2
      2     2     3   am
      3     2    19    1
      4     3     4    1
      5     3    29    1
      6     4     5    1
      7     4    11    1
      8     4    30    1
      9     5     6    1
     10     5    10    1
     11     5    31    1
     12     6     7    1
     13     6    32    1
     14     6    33    1
     15     7     8    1
     16     7    34    1
     17     7    35    1
     18     8     9    1
     19     8    11    1
     20     8    36    1
     21     9    10    1
     22     9    37    1
     23     9    38    1
     24    10    39    1
     25    10    40    1
     26    11    12    1
     27    11    41    1
     28    12    13    1
     29    12    42    1
     30    12    43    1
     31    13    14   ar
     32    13    18   ar
     33    14    15   ar
     34    14    44    1
     35    15    16   ar
     36    15    45    1
     37    16    17   ar
     38    16    46    1
     39    17    18   ar
     40    18    47    1
     41    19    20   ar
     42    19    24   ar
     43    20    21   ar
     44    20    48    1
     45    21    22   ar
     46    21    49    1
     47    22    23   ar
     48    22    28    1
     49    23    24   ar
     50    23    25    1
     51    24    50    1
     52    25    26    1
     53    26    27    1
     54    26    51    1
     55    26    52    1
     56    27    28    1
     57    27    53    1
     58    27    54    1
@<TRIPOS>MOLECULE
CHEMBL2179852_LIG
47 50 1 0 0
SMALL
USER_CHARGES

@<TRIPOS>ATOM
1 O1 221.8897 152.6088 176.5134 O.2 778 ligands_prepared 0.0000
2 C2 221.9600 153.3300 177.5024 C.2 778 ligands_prepared 0.0000
3 N3 223.0609 154.1304 177.6794 N.am 778 ligands_prepared 0.0000
4 C4 224.1117 154.1538 176.6612 C.3 778 ligands_prepared 0.0000
5 C5 224.8595 152.7986 176.6120 C.3 778 ligands_prepared 0.0000
6 C6 225.9067 152.9007 175.4941 C.3 778 ligands_prepared 0.0000
7 C7 226.9441 153.9725 175.8614 C.3 778 ligands_prepared 0.0000
8 N8 226.5324 154.6897 177.1325 N.4 778 ligands_prepared 1.0000
9 C9 226.5120 153.6944 178.2797 C.3 778 ligands_prepared 0.0000
10 C10 225.5779 152.5246 177.9409 C.3 778 ligands_prepared 0.0000
11 C11 225.1374 155.2909 176.9925 C.3 778 ligands_prepared 0.0000
12 C12 225.1109 156.3816 175.9173 C.3 778 ligands_prepared 0.0000
13 C13 225.8824 157.5911 176.3213 C.ar 778 ligands_prepared 0.0000
14 C14 226.5158 157.6585 177.5641 C.ar 778 ligands_prepared 0.0000
15 C15 227.2259 158.8075 177.9047 C.ar 778 ligands_prepared 0.0000
16 C16 227.2898 159.8568 176.9811 C.ar 778 ligands_prepared 0.0000
17 N17 226.6908 159.7940 175.7735 N.ar 778 ligands_prepared 0.0000
18 C18 226.0024 158.6844 175.4494 C.ar 778 ligands_prepared 0.0000
19 C19 220.8807 153.3706 178.5121 C.ar 778 ligands_prepared 0.0000
20 C20 221.0750 153.6948 179.8559 C.ar 778 ligands_prepared 0.0000
21 C21 219.9774 153.7170 180.7114 C.ar 778 ligands_prepared 0.0000
22 C22 218.7142 153.4113 180.1947 C.ar 778 ligands_prepared 0.0000
23 N23 218.5178 153.0989 178.8944 N.ar 778 ligands_prepared 0.0000
24 C24 219.5783 153.0807 178.0682 C.ar 778 ligands_prepared 0.0000
25 H25 223.1695 154.7450 178.4786 H 778 ligands_prepared 0.0000
26 H26 223.6372 154.3534 175.6579 H 778 ligands_prepared 0.0000
27 H27 224.1384 151.9750 176.3901 H 778 ligands_prepared 0.0000
28 H28 226.4011 151.9205 175.3381 H 778 ligands_prepared 0.0000
29 H29 225.4268 153.1330 174.5212 H 778 ligands_prepared 0.0000
30 H30 227.0677 154.7166 175.0431 H 778 ligands_prepared 0.0000
31 H31 227.9518 153.5218 176.0235 H 778 ligands_prepared 0.0000
32 H32 227.2172 155.4622 177.3411 H 778 ligands_prepared 0.0000
33 H33 226.1916 154.2211 179.2091 H 778 ligands_prepared 0.0000
34 H34 227.5529 153.3447 178.4674 H 778 ligands_prepared 0.0000
35 H35 224.8577 152.3458 178.7634 H 778 ligands_prepared 0.0000
36 H36 226.1517 151.5763 177.8722 H 778 ligands_prepared 0.0000
37 H37 224.8833 155.7486 177.9906 H 778 ligands_prepared 0.0000
38 H38 225.4573 155.9879 174.9347 H 778 ligands_prepared 0.0000
39 H39 224.0390 156.6516 175.7195 H 778 ligands_prepared 0.0000
40 H40 226.4645 156.8196 178.2639 H 778 ligands_prepared 0.0000
41 H41 227.7244 158.8884 178.8715 H 778 ligands_prepared 0.0000
42 H42 227.8373 160.7835 177.2021 H 778 ligands_prepared 0.0000
43 H43 225.5355 158.6760 174.4537 H 778 ligands_prepared 0.0000
44 H44 222.0690 153.9341 180.2462 H 778 ligands_prepared 0.0000
45 H45 220.1011 153.9684 181.7671 H 778 ligands_prepared 0.0000
46 H46 217.8157 153.4140 180.8305 H 778 ligands_prepared 0.0000
47 H47 219.3783 152.8253 177.0146 H 778 ligands_prepared 0.0000
@<TRIPOS>BOND
      1     1     2    2
      2     2     3   am
      3     2    19    1
      4     3     4    1
      5     3    25    1
      6     4     5    1
      7     4    11    1
      8     4    26    1
      9     5     6    1
     10     5    10    1
     11     5    27    1
     12     6     7    1
     13     6    28    1
     14     6    29    1
     15     7     8    1
     16     7    30    1
     17     7    31    1
     18     8     9    1
     19     8    11    1
     20     8    32    1
     21     9    10    1
     22     9    33    1
     23     9    34    1
     24    10    35    1
     25    10    36    1
     26    11    12    1
     27    11    37    1
     28    12    13    1
     29    12    38    1
     30    12    39    1
     31    13    14   ar
     32    13    18   ar
     33    14    15   ar
     34    14    40    1
     35    15    16   ar
     36    15    41    1
     37    16    17   ar
     38    16    42    1
     39    17    18   ar
     40    18    43    1
     41    19    20   ar
     42    19    24   ar
     43    20    21   ar
     44    20    44    1
     45    21    22   ar
     46    21    45    1
     47    22    23   ar
     48    22    46    1
     49    23    24   ar
     50    24    47    1
@<TRIPOS>MOLECULE
CHEMBL2179853_LIG
47 50 1 0 0
SMALL
USER_CHARGES

@<TRIPOS>ATOM
1 O1 222.2090 152.8247 176.4156 O.2 778 ligands_prepared 0.0000
2 C2 222.2708 153.4024 177.4902 C.2 778 ligands_prepared 0.0000
3 N3 223.3712 154.1382 177.8402 N.am 778 ligands_prepared 0.0000
4 C4 224.4663 154.3350 176.8977 C.3 778 ligands_prepared 0.0000
5 C5 224.9533 152.9832 176.3119 C.3 778 ligands_prepared 0.0000
6 C6 225.9107 153.3074 175.1561 C.3 778 ligands_prepared 0.0000
7 C7 226.9976 154.2690 175.6568 C.3 778 ligands_prepared 0.0000
8 N8 226.9595 154.3587 177.1701 N.4 778 ligands_prepared 1.0000
9 C9 227.0038 152.9540 177.7496 C.3 778 ligands_prepared 0.0000
10 C10 225.7213 152.1934 177.3800 C.3 778 ligands_prepared 0.0000
11 C11 225.6641 155.0148 177.6385 C.3 778 ligands_prepared 0.0000
12 C12 225.7023 156.5304 177.4065 C.3 778 ligands_prepared 0.0000
13 C13 226.6214 157.1561 178.4037 C.ar 778 ligands_prepared 0.0000
14 C14 226.9045 158.5223 178.3700 C.ar 778 ligands_prepared 0.0000
15 C15 227.7659 159.0632 179.3214 C.ar 778 ligands_prepared 0.0000
16 C16 228.3050 158.2199 180.2961 C.ar 778 ligands_prepared 0.0000
17 N17 228.0271 156.9019 180.3524 N.ar 778 ligands_prepared 0.0000
18 C18 227.2117 156.3773 179.4137 C.ar 778 ligands_prepared 0.0000
19 C19 221.1212 153.3711 178.4510 C.ar 778 ligands_prepared 0.0000
20 C20 219.8498 153.0481 177.9773 C.ar 778 ligands_prepared 0.0000
21 C21 218.7784 153.1056 178.8750 C.ar 778 ligands_prepared 0.0000
22 C22 219.0190 153.4661 180.1955 C.ar 778 ligands_prepared 0.0000
23 C23 220.3361 153.7453 180.5939 C.ar 778 ligands_prepared 0.0000
24 N24 221.3702 153.7040 179.7369 N.ar 778 ligands_prepared 0.0000
25 H25 223.4369 154.5844 178.7536 H 778 ligands_prepared 0.0000
26 H26 224.1181 154.9970 176.0545 H 778 ligands_prepared 0.0000
27 H27 224.0786 152.3971 175.9457 H 778 ligands_prepared 0.0000
28 H28 225.3670 153.7457 174.2952 H 778 ligands_prepared 0.0000
29 H29 226.3637 152.3729 174.7651 H 778 ligands_prepared 0.0000
30 H30 226.8743 155.2896 175.2284 H 778 ligands_prepared 0.0000
31 H31 228.0131 153.9310 175.3477 H 778 ligands_prepared 0.0000
32 H32 227.7872 154.9139 177.5126 H 778 ligands_prepared 0.0000
33 H33 227.1373 153.0251 178.8536 H 778 ligands_prepared 0.0000
34 H34 227.9100 152.4361 177.3601 H 778 ligands_prepared 0.0000
35 H35 225.9667 151.1796 177.0066 H 778 ligands_prepared 0.0000
36 H36 225.0923 152.0165 178.2750 H 778 ligands_prepared 0.0000
37 H37 225.5916 154.8238 178.7481 H 778 ligands_prepared 0.0000
38 H38 224.6844 156.9777 177.4650 H 778 ligands_prepared 0.0000
39 H39 226.0417 156.7643 176.3684 H 778 ligands_prepared 0.0000
40 H40 226.4429 159.1637 177.6150 H 778 ligands_prepared 0.0000
41 H41 228.0117 160.1265 179.3086 H 778 ligands_prepared 0.0000
42 H42 228.9852 158.5979 181.0722 H 778 ligands_prepared 0.0000
43 H43 227.0149 155.3021 179.5026 H 778 ligands_prepared 0.0000
44 H44 219.7010 152.7644 176.9324 H 778 ligands_prepared 0.0000
45 H45 217.7658 152.8715 178.5353 H 778 ligands_prepared 0.0000
46 H46 218.2049 153.5325 180.9197 H 778 ligands_prepared 0.0000
47 H47 220.5815 154.0178 181.6297 H 778 ligands_prepared 0.0000
@<TRIPOS>BOND
      1     1     2    2
      2     2     3   am
      3     2    19    1
      4     3     4    1
      5     3    25    1
      6     4     5    1
      7     4    11    1
      8     4    26    1
      9     5     6    1
     10     5    10    1
     11     5    27    1
     12     6     7    1
     13     6    28    1
     14     6    29    1
     15     7     8    1
     16     7    30    1
     17     7    31    1
     18     8     9    1
     19     8    11    1
     20     8    32    1
     21     9    10    1
     22     9    33    1
     23     9    34    1
     24    10    35    1
     25    10    36    1
     26    11    12    1
     27    11    37    1
     28    12    13    1
     29    12    38    1
     30    12    39    1
     31    13    14   ar
     32    13    18   ar
     33    14    15   ar
     34    14    40    1
     35    15    16   ar
     36    15    41    1
     37    16    17   ar
     38    16    42    1
     39    17    18   ar
     40    18    43    1
     41    19    20   ar
     42    19    24   ar
     43    20    21   ar
     44    20    44    1
     45    21    22   ar
     46    21    45    1
     47    22    23   ar
     48    22    46    1
     49    23    24   ar
     50    23    47    1
@<TRIPOS>MOLECULE
CHEMBL2179854_LIG
47 50 1 0 0
SMALL
USER_CHARGES

@<TRIPOS>ATOM
1 O1 221.8570 152.5465 176.7639 O.2 778 ligands_prepared 0.0000
2 C2 221.9506 153.3420 177.6884 C.2 778 ligands_prepared 0.0000
3 N3 223.0158 154.1976 177.7699 N.am 778 ligands_prepared 0.0000
4 C4 224.0498 154.1690 176.7323 C.3 778 ligands_prepared 0.0000
5 C5 224.7642 152.7958 176.7078 C.3 778 ligands_prepared 0.0000
6 C6 225.4961 152.5400 178.0335 C.3 778 ligands_prepared 0.0000
7 C7 226.4558 153.6998 178.3359 C.3 778 ligands_prepared 0.0000
8 N8 226.4930 154.6528 177.1562 N.4 778 ligands_prepared 1.0000
9 C9 226.8812 153.8729 175.9144 C.3 778 ligands_prepared 0.0000
10 C10 225.7898 152.8513 175.5658 C.3 778 ligands_prepared 0.0000
11 C11 225.1115 155.2857 177.0073 C.3 778 ligands_prepared 0.0000
12 C12 225.1247 156.3357 175.8922 C.3 778 ligands_prepared 0.0000
13 C13 225.8959 157.5466 176.2910 C.ar 778 ligands_prepared 0.0000
14 C14 226.5105 157.6313 177.5418 C.ar 778 ligands_prepared 0.0000
15 C15 227.2159 158.7838 177.8786 C.ar 778 ligands_prepared 0.0000
16 C16 227.2872 159.8250 176.9461 C.ar 778 ligands_prepared 0.0000
17 N17 226.7085 159.7459 175.7301 N.ar 778 ligands_prepared 0.0000
18 C18 226.0295 158.6303 175.4076 C.ar 778 ligands_prepared 0.0000
19 C19 220.9099 153.4421 178.7484 C.ar 778 ligands_prepared 0.0000
20 C20 219.5740 153.2584 178.3988 C.ar 778 ligands_prepared 0.0000
21 C21 218.6056 153.4015 179.4004 C.ar 778 ligands_prepared 0.0000
22 N22 218.9239 153.7105 180.6724 N.ar 778 ligands_prepared 0.0000
23 C23 220.2179 153.8938 180.9970 C.ar 778 ligands_prepared 0.0000
24 C24 221.2514 153.7667 180.0588 C.ar 778 ligands_prepared 0.0000
25 H25 223.1307 154.8568 178.5379 H 778 ligands_prepared 0.0000
26 H26 223.5609 154.3545 175.7320 H 778 ligands_prepared 0.0000
27 H27 224.0224 151.9822 176.5189 H 778 ligands_prepared 0.0000
28 H28 226.0513 151.5807 177.9793 H 778 ligands_prepared 0.0000
29 H29 224.7830 152.3984 178.8705 H 778 ligands_prepared 0.0000
30 H30 226.1492 154.2637 179.2484 H 778 ligands_prepared 0.0000
31 H31 227.4906 153.3338 178.5346 H 778 ligands_prepared 0.0000
32 H32 227.1981 155.4157 177.3297 H 778 ligands_prepared 0.0000
33 H33 227.0681 154.5787 175.0751 H 778 ligands_prepared 0.0000
34 H34 227.8566 153.3656 176.1096 H 778 ligands_prepared 0.0000
35 H35 225.3003 153.1055 174.6043 H 778 ligands_prepared 0.0000
36 H36 226.2360 151.8495 175.3970 H 778 ligands_prepared 0.0000
37 H37 224.8816 155.7903 177.9884 H 778 ligands_prepared 0.0000
38 H38 224.0649 156.6146 175.6473 H 778 ligands_prepared 0.0000
39 H39 225.4989 155.9027 174.9364 H 778 ligands_prepared 0.0000
40 H40 226.4473 156.8011 178.2500 H 778 ligands_prepared 0.0000
41 H41 227.7036 158.8738 178.8493 H 778 ligands_prepared 0.0000
42 H42 227.8268 160.7579 177.1649 H 778 ligands_prepared 0.0000
43 H43 225.5803 158.6096 174.4040 H 778 ligands_prepared 0.0000
44 H44 219.2879 153.0156 177.3730 H 778 ligands_prepared 0.0000
45 H45 217.5337 153.2744 179.1864 H 778 ligands_prepared 0.0000
46 H46 220.4257 154.1599 182.0436 H 778 ligands_prepared 0.0000
47 H47 222.2883 153.9309 180.3568 H 778 ligands_prepared 0.0000
@<TRIPOS>BOND
      1     1     2    2
      2     2     3   am
      3     2    19    1
      4     3     4    1
      5     3    25    1
      6     4     5    1
      7     4    11    1
      8     4    26    1
      9     5     6    1
     10     5    10    1
     11     5    27    1
     12     6     7    1
     13     6    28    1
     14     6    29    1
     15     7     8    1
     16     7    30    1
     17     7    31    1
     18     8     9    1
     19     8    11    1
     20     8    32    1
     21     9    10    1
     22     9    33    1
     23     9    34    1
     24    10    35    1
     25    10    36    1
     26    11    12    1
     27    11    37    1
     28    12    13    1
     29    12    38    1
     30    12    39    1
     31    13    14   ar
     32    13    18   ar
     33    14    15   ar
     34    14    40    1
     35    15    16   ar
     36    15    41    1
     37    16    17   ar
     38    16    42    1
     39    17    18   ar
     40    18    43    1
     41    19    20   ar
     42    19    24   ar
     43    20    21   ar
     44    20    44    1
     45    21    22   ar
     46    21    45    1
     47    22    23   ar
     48    23    24   ar
     49    23    46    1
     50    24    47    1
@<TRIPOS>MOLECULE
CHEMBL2179855_LIG
47 50 1 0 0
SMALL
USER_CHARGES

@<TRIPOS>ATOM
1 O1 222.1723 152.8043 176.4180 O.2 778 ligands_prepared 0.0000
2 C2 222.2760 153.3762 177.4910 C.2 778 ligands_prepared 0.0000
3 N3 223.3874 154.0821 177.8520 N.am 778 ligands_prepared 0.0000
4 C4 224.4943 154.2695 176.9147 C.3 778 ligands_prepared 0.0000
5 C5 224.9156 152.9255 176.2674 C.3 778 ligands_prepared 0.0000
6 C6 225.8721 153.2702 175.1175 C.3 778 ligands_prepared 0.0000
7 C7 227.0346 154.1087 175.6687 C.3 778 ligands_prepared 0.0000
8 N8 226.9839 154.1642 177.1829 N.4 778 ligands_prepared 1.0000
9 C9 226.9713 152.7325 177.7006 C.3 778 ligands_prepared 0.0000
10 C10 225.6621 152.0464 177.2803 C.3 778 ligands_prepared 0.0000
11 C11 225.7169 154.8416 177.6995 C.3 778 ligands_prepared 0.0000
12 C12 225.8248 156.3699 177.7076 C.3 778 ligands_prepared 0.0000
13 C13 226.6290 156.9851 178.7995 C.ar 778 ligands_prepared 0.0000
14 C14 227.0529 156.2281 179.8965 C.ar 778 ligands_prepared 0.0000
15 C15 227.8007 156.8393 180.8987 C.ar 778 ligands_prepared 0.0000
16 C16 228.0961 158.2019 180.7833 C.ar 778 ligands_prepared 0.0000
17 N17 227.6576 158.9492 179.7507 N.ar 778 ligands_prepared 0.0000
18 C18 226.9301 158.3554 178.7863 C.ar 778 ligands_prepared 0.0000
19 C19 221.1433 153.4226 178.4773 C.ar 778 ligands_prepared 0.0000
20 N20 221.4493 153.7074 179.7558 N.ar 778 ligands_prepared 0.0000
21 C21 220.4497 153.7267 180.6580 C.ar 778 ligands_prepared 0.0000
22 C22 219.1136 153.4640 180.3146 C.ar 778 ligands_prepared 0.0000
23 C23 218.7987 153.1676 178.9921 C.ar 778 ligands_prepared 0.0000
24 C24 219.8387 153.1480 178.0671 C.ar 778 ligands_prepared 0.0000
25 Cl25 219.5466 152.7878 176.4332 Cl 778 ligands_prepared 0.0000
26 H26 223.4770 154.5128 178.7717 H 778 ligands_prepared 0.0000
27 H27 224.1771 154.9809 176.1033 H 778 ligands_prepared 0.0000
28 H28 224.0161 152.3899 175.8803 H 778 ligands_prepared 0.0000
29 H29 225.3470 153.8121 174.3058 H 778 ligands_prepared 0.0000
30 H30 226.2497 152.3416 174.6412 H 778 ligands_prepared 0.0000
31 H31 227.0223 155.1396 175.2558 H 778 ligands_prepared 0.0000
32 H32 228.0196 153.6758 175.3668 H 778 ligands_prepared 0.0000
33 H33 227.8303 154.6734 177.5469 H 778 ligands_prepared 0.0000
34 H34 227.8627 152.2000 177.2980 H 778 ligands_prepared 0.0000
35 H35 227.0957 152.7461 178.8074 H 778 ligands_prepared 0.0000
36 H36 225.0296 151.8253 178.1634 H 778 ligands_prepared 0.0000
37 H37 225.8776 151.0513 176.8382 H 778 ligands_prepared 0.0000
38 H38 225.6256 154.5288 178.7882 H 778 ligands_prepared 0.0000
39 H39 224.7929 156.8074 177.6927 H 778 ligands_prepared 0.0000
40 H40 226.2380 156.6869 176.7157 H 778 ligands_prepared 0.0000
41 H41 226.7956 155.1689 179.9713 H 778 ligands_prepared 0.0000
42 H42 228.1492 156.2683 181.7604 H 778 ligands_prepared 0.0000
43 H43 228.6947 158.7274 181.5414 H 778 ligands_prepared 0.0000
44 H44 226.5696 159.0156 177.9803 H 778 ligands_prepared 0.0000
45 H45 220.7415 153.9628 181.6942 H 778 ligands_prepared 0.0000
46 H46 218.3332 153.4945 181.0811 H 778 ligands_prepared 0.0000
47 H47 217.7651 152.9570 178.6937 H 778 ligands_prepared 0.0000
@<TRIPOS>BOND
      1     1     2    2
      2     2     3   am
      3     2    19    1
      4     3     4    1
      5     3    26    1
      6     4     5    1
      7     4    11    1
      8     4    27    1
      9     5     6    1
     10     5    10    1
     11     5    28    1
     12     6     7    1
     13     6    29    1
     14     6    30    1
     15     7     8    1
     16     7    31    1
     17     7    32    1
     18     8     9    1
     19     8    11    1
     20     8    33    1
     21     9    10    1
     22     9    34    1
     23     9    35    1
     24    10    36    1
     25    10    37    1
     26    11    12    1
     27    11    38    1
     28    12    13    1
     29    12    39    1
     30    12    40    1
     31    13    14   ar
     32    13    18   ar
     33    14    15   ar
     34    14    41    1
     35    15    16   ar
     36    15    42    1
     37    16    17   ar
     38    16    43    1
     39    17    18   ar
     40    18    44    1
     41    19    20   ar
     42    19    24   ar
     43    20    21   ar
     44    21    22   ar
     45    21    45    1
     46    22    23   ar
     47    22    46    1
     48    23    24   ar
     49    23    47    1
     50    24    25    1
@<TRIPOS>MOLECULE
CHEMBL2179856_LIG
47 50 1 0 0
SMALL
USER_CHARGES

@<TRIPOS>ATOM
1 O1 224.8191 151.1860 176.8856 O.2 778 ligands_prepared 0.0000
2 C2 224.0813 152.1274 177.1291 C.2 778 ligands_prepared 0.0000
3 N3 222.7768 151.9720 177.4967 N.am 778 ligands_prepared 0.0000
4 C4 221.9314 153.1308 177.7718 C.3 778 ligands_prepared 0.0000
5 C5 221.8140 153.3968 179.2957 C.3 778 ligands_prepared 0.0000
6 C6 220.9002 152.3543 179.9551 C.3 778 ligands_prepared 0.0000
7 C7 219.4702 152.5057 179.4138 C.3 778 ligands_prepared 0.0000
8 N8 219.4811 153.4202 178.1969 N.4 778 ligands_prepared 1.0000
9 C9 219.8497 154.8122 178.6726 C.3 778 ligands_prepared 0.0000
10 C10 221.1755 154.7846 179.4482 C.3 778 ligands_prepared 0.0000
11 C11 220.5018 152.8541 177.2130 C.3 778 ligands_prepared 0.0000
12 C12 220.2753 153.3315 175.7773 C.3 778 ligands_prepared 0.0000
13 C13 219.0927 152.7796 175.0599 C.ar 778 ligands_prepared 0.0000
14 C14 217.7970 153.0797 175.4894 C.ar 778 ligands_prepared 0.0000
15 C15 216.7089 152.5460 174.8058 C.ar 778 ligands_prepared 0.0000
16 C16 216.9499 151.7073 173.7109 C.ar 778 ligands_prepared 0.0000
17 N17 218.1951 151.3840 173.3100 N.ar 778 ligands_prepared 0.0000
18 C18 219.2447 151.9020 173.9758 C.ar 778 ligands_prepared 0.0000
19 C19 224.5684 153.5504 177.1060 C.ar 778 ligands_prepared 0.0000
20 C20 225.4391 153.9971 178.1003 C.ar 778 ligands_prepared 0.0000
21 C21 225.8296 155.3321 178.0228 C.ar 778 ligands_prepared 0.0000
22 Cl22 226.8870 155.9504 179.2074 Cl 778 ligands_prepared 0.0000
23 C23 225.3801 156.1633 177.0082 C.ar 778 ligands_prepared 0.0000
24 C24 224.5205 155.6055 176.0491 C.ar 778 ligands_prepared 0.0000
25 N25 224.1190 154.3213 176.0968 N.ar 778 ligands_prepared 0.0000
26 H26 222.3587 151.0489 177.6235 H 778 ligands_prepared 0.0000
27 H27 222.3772 154.0398 177.2813 H 778 ligands_prepared 0.0000
28 H28 222.8254 153.3751 179.7654 H 778 ligands_prepared 0.0000
29 H29 221.2785 151.3270 179.7877 H 778 ligands_prepared 0.0000
30 H30 220.9069 152.4761 181.0573 H 778 ligands_prepared 0.0000
31 H31 219.0277 151.5258 179.1278 H 778 ligands_prepared 0.0000
32 H32 218.7867 152.9390 180.1796 H 778 ligands_prepared 0.0000
33 H33 218.5288 153.4389 177.7496 H 778 ligands_prepared 0.0000
34 H34 219.0183 155.1942 179.3138 H 778 ligands_prepared 0.0000
35 H35 219.9013 155.5014 177.8052 H 778 ligands_prepared 0.0000
36 H36 221.8572 155.5803 179.0878 H 778 ligands_prepared 0.0000
37 H37 221.0089 155.0158 180.5209 H 778 ligands_prepared 0.0000
38 H38 220.3264 151.7306 177.2015 H 778 ligands_prepared 0.0000
39 H39 221.2067 153.1520 175.1814 H 778 ligands_prepared 0.0000
40 H40 220.2135 154.4524 175.8013 H 778 ligands_prepared 0.0000
41 H41 217.6377 153.7240 176.3593 H 778 ligands_prepared 0.0000
42 H42 215.6891 152.7749 175.1183 H 778 ligands_prepared 0.0000
43 H43 216.1241 151.2672 173.1331 H 778 ligands_prepared 0.0000
44 H44 220.2405 151.5876 173.6233 H 778 ligands_prepared 0.0000
45 H45 225.7844 153.3304 178.8952 H 778 ligands_prepared 0.0000
46 H46 225.6695 157.2161 176.9430 H 778 ligands_prepared 0.0000
47 H47 224.1319 156.2048 175.2082 H 778 ligands_prepared 0.0000
@<TRIPOS>BOND
      1     1     2    2
      2     2     3   am
      3     2    19    1
      4     3     4    1
      5     3    26    1
      6     4     5    1
      7     4    11    1
      8     4    27    1
      9     5     6    1
     10     5    10    1
     11     5    28    1
     12     6     7    1
     13     6    29    1
     14     6    30    1
     15     7     8    1
     16     7    31    1
     17     7    32    1
     18     8     9    1
     19     8    11    1
     20     8    33    1
     21     9    10    1
     22     9    34    1
     23     9    35    1
     24    10    36    1
     25    10    37    1
     26    11    12    1
     27    11    38    1
     28    12    13    1
     29    12    39    1
     30    12    40    1
     31    13    14   ar
     32    13    18   ar
     33    14    15   ar
     34    14    41    1
     35    15    16   ar
     36    15    42    1
     37    16    17   ar
     38    16    43    1
     39    17    18   ar
     40    18    44    1
     41    19    20   ar
     42    19    25   ar
     43    20    21   ar
     44    20    45    1
     45    21    22    1
     46    21    23   ar
     47    23    24   ar
     48    23    46    1
     49    24    25   ar
     50    24    47    1
@<TRIPOS>MOLECULE
CHEMBL2179857_LIG
47 50 1 0 0
SMALL
USER_CHARGES

@<TRIPOS>ATOM
1 O1 224.7851 151.0403 176.8842 O.2 778 ligands_prepared 0.0000
2 C2 224.0882 152.0169 177.1131 C.2 778 ligands_prepared 0.0000
3 N3 222.7678 151.9267 177.4418 N.am 778 ligands_prepared 0.0000
4 C4 221.9558 153.1150 177.6970 C.3 778 ligands_prepared 0.0000
5 C5 221.9716 153.4921 179.2003 C.3 778 ligands_prepared 0.0000
6 C6 221.1848 154.8021 179.3499 C.3 778 ligands_prepared 0.0000
7 C7 219.7392 154.5903 178.8761 C.3 778 ligands_prepared 0.0000
8 N8 219.5399 153.1581 178.4205 N.4 778 ligands_prepared 1.0000
9 C9 219.8370 152.2244 179.5807 C.3 778 ligands_prepared 0.0000
10 C10 221.2908 152.4047 180.0412 C.3 778 ligands_prepared 0.0000
11 C11 220.4814 152.8109 177.2696 C.3 778 ligands_prepared 0.0000
12 C12 220.1039 153.5803 176.0027 C.3 778 ligands_prepared 0.0000
13 C13 219.0205 152.8989 175.2380 C.ar 778 ligands_prepared 0.0000
14 C14 217.6753 153.1038 175.5518 C.ar 778 ligands_prepared 0.0000
15 C15 216.6949 152.4581 174.8020 C.ar 778 ligands_prepared 0.0000
16 C16 217.0940 151.6238 173.7509 C.ar 778 ligands_prepared 0.0000
17 N17 218.3892 151.4251 173.4376 N.ar 778 ligands_prepared 0.0000
18 C18 219.3348 152.0497 174.1640 C.ar 778 ligands_prepared 0.0000
19 C19 224.6500 153.4113 177.1177 C.ar 778 ligands_prepared 0.0000
20 C20 225.7574 153.7083 177.9163 C.ar 778 ligands_prepared 0.0000
21 C21 226.2502 155.0151 177.8965 C.ar 778 ligands_prepared 0.0000
22 C22 225.6077 155.9365 177.0818 C.ar 778 ligands_prepared 0.0000
23 Cl23 226.1553 157.5457 177.0224 Cl 778 ligands_prepared 0.0000
24 C24 224.5039 155.5663 176.2992 C.ar 778 ligands_prepared 0.0000
25 N25 224.0327 154.3089 176.3242 N.ar 778 ligands_prepared 0.0000
26 H26 222.3089 151.0207 177.5589 H 778 ligands_prepared 0.0000
27 H27 222.3602 153.9821 177.0974 H 778 ligands_prepared 0.0000
28 H28 223.0256 153.6326 179.5382 H 778 ligands_prepared 0.0000
29 H29 221.6677 155.6213 178.7792 H 778 ligands_prepared 0.0000
30 H30 221.2014 155.1401 180.4068 H 778 ligands_prepared 0.0000
31 H31 219.0100 154.8041 179.6943 H 778 ligands_prepared 0.0000
32 H32 219.4741 155.2814 178.0460 H 778 ligands_prepared 0.0000
33 H33 218.5460 153.0221 178.0984 H 778 ligands_prepared 0.0000
34 H34 219.6307 151.1769 179.2606 H 778 ligands_prepared 0.0000
35 H35 219.1169 152.4422 180.4034 H 778 ligands_prepared 0.0000
36 H36 221.3220 152.6811 181.1173 H 778 ligands_prepared 0.0000
37 H37 221.8450 151.4463 179.9890 H 778 ligands_prepared 0.0000
38 H38 220.3601 151.7045 177.0801 H 778 ligands_prepared 0.0000
39 H39 219.8341 154.6370 176.2369 H 778 ligands_prepared 0.0000
40 H40 221.0157 153.6878 175.3606 H 778 ligands_prepared 0.0000
41 H41 217.3910 153.7669 176.3729 H 778 ligands_prepared 0.0000
42 H42 215.6377 152.5998 175.0274 H 778 ligands_prepared 0.0000
43 H43 216.3575 151.0946 173.1264 H 778 ligands_prepared 0.0000
44 H44 220.3777 151.8641 173.8677 H 778 ligands_prepared 0.0000
45 H45 226.2247 152.9424 178.5403 H 778 ligands_prepared 0.0000
46 H46 227.1176 155.2863 178.5118 H 778 ligands_prepared 0.0000
47 H47 223.9768 156.2765 175.6396 H 778 ligands_prepared 0.0000
@<TRIPOS>BOND
      1     1     2    2
      2     2     3   am
      3     2    19    1
      4     3     4    1
      5     3    26    1
      6     4     5    1
      7     4    11    1
      8     4    27    1
      9     5     6    1
     10     5    10    1
     11     5    28    1
     12     6     7    1
     13     6    29    1
     14     6    30    1
     15     7     8    1
     16     7    31    1
     17     7    32    1
     18     8     9    1
     19     8    11    1
     20     8    33    1
     21     9    10    1
     22     9    34    1
     23     9    35    1
     24    10    36    1
     25    10    37    1
     26    11    12    1
     27    11    38    1
     28    12    13    1
     29    12    39    1
     30    12    40    1
     31    13    14   ar
     32    13    18   ar
     33    14    15   ar
     34    14    41    1
     35    15    16   ar
     36    15    42    1
     37    16    17   ar
     38    16    43    1
     39    17    18   ar
     40    18    44    1
     41    19    20   ar
     42    19    25   ar
     43    20    21   ar
     44    20    45    1
     45    21    22   ar
     46    21    46    1
     47    22    23    1
     48    22    24   ar
     49    24    25   ar
     50    24    47    1
@<TRIPOS>MOLECULE
CHEMBL2179858_LIG
47 50 1 0 0
SMALL
USER_CHARGES

@<TRIPOS>ATOM
1 O1 224.8726 151.2797 176.9771 O.2 778 ligands_prepared 0.0000
2 C2 224.1047 152.2093 177.1553 C.2 778 ligands_prepared 0.0000
3 N3 222.7957 152.0409 177.4998 N.am 778 ligands_prepared 0.0000
4 C4 221.9100 153.1869 177.6954 C.3 778 ligands_prepared 0.0000
5 C5 221.8284 153.5898 179.1909 C.3 778 ligands_prepared 0.0000
6 C6 220.9827 154.8684 179.2701 C.3 778 ligands_prepared 0.0000
7 C7 219.5826 154.5966 178.6996 C.3 778 ligands_prepared 0.0000
8 N8 219.4600 153.1433 178.2830 N.4 778 ligands_prepared 1.0000
9 C9 219.7205 152.2617 179.4917 C.3 778 ligands_prepared 0.0000
10 C10 221.1475 152.4866 180.0098 C.3 778 ligands_prepared 0.0000
11 C11 220.4787 152.7981 177.2000 C.3 778 ligands_prepared 0.0000
12 C12 220.1353 153.5036 175.8852 C.3 778 ligands_prepared 0.0000
13 C13 219.0148 152.8335 175.1667 C.ar 778 ligands_prepared 0.0000
14 C14 217.6837 153.1138 175.4846 C.ar 778 ligands_prepared 0.0000
15 C15 216.6657 152.4844 174.7739 C.ar 778 ligands_prepared 0.0000
16 C16 217.0106 151.5894 173.7552 C.ar 778 ligands_prepared 0.0000
17 N17 218.2927 151.3135 173.4413 N.ar 778 ligands_prepared 0.0000
18 C18 219.2747 151.9228 174.1298 C.ar 778 ligands_prepared 0.0000
19 C19 224.5514 153.6419 177.0616 C.ar 778 ligands_prepared 0.0000
20 C20 224.0882 154.4685 176.0373 C.ar 778 ligands_prepared 0.0000
21 C21 224.5340 155.7930 176.0020 C.ar 778 ligands_prepared 0.0000
22 C22 225.4198 156.2476 176.9770 C.ar 778 ligands_prepared 0.0000
23 C23 225.8109 155.3311 177.9554 C.ar 778 ligands_prepared 0.0000
24 Cl24 226.8904 155.8014 179.1982 Cl 778 ligands_prepared 0.0000
25 N25 225.4042 154.0557 178.0222 N.ar 778 ligands_prepared 0.0000
26 H26 222.4102 151.1141 177.6948 H 778 ligands_prepared 0.0000
27 H27 222.3002 154.0636 177.1023 H 778 ligands_prepared 0.0000
28 H28 222.8548 153.7807 179.5857 H 778 ligands_prepared 0.0000
29 H29 220.9141 155.2159 180.3213 H 778 ligands_prepared 0.0000
30 H30 221.4707 155.7020 178.7252 H 778 ligands_prepared 0.0000
31 H31 219.3593 155.2501 177.8271 H 778 ligands_prepared 0.0000
32 H32 218.7878 154.8148 179.4523 H 778 ligands_prepared 0.0000
33 H33 218.4938 152.9623 177.9092 H 778 ligands_prepared 0.0000
34 H34 218.9611 152.4996 180.2723 H 778 ligands_prepared 0.0000
35 H35 219.5459 151.1981 179.2099 H 778 ligands_prepared 0.0000
36 H36 221.1291 152.7670 181.0840 H 778 ligands_prepared 0.0000
37 H37 221.7312 151.5444 179.9839 H 778 ligands_prepared 0.0000
38 H38 220.4168 151.6823 177.0448 H 778 ligands_prepared 0.0000
39 H39 219.9234 154.5862 176.0491 H 778 ligands_prepared 0.0000
40 H40 221.0486 153.5206 175.2352 H 778 ligands_prepared 0.0000
41 H41 217.4388 153.8269 176.2770 H 778 ligands_prepared 0.0000
42 H42 215.6179 152.6865 175.0032 H 778 ligands_prepared 0.0000
43 H43 216.2453 151.0713 173.1597 H 778 ligands_prepared 0.0000
44 H44 220.3030 151.6731 173.8317 H 778 ligands_prepared 0.0000
45 H45 223.3955 154.0936 175.2792 H 778 ligands_prepared 0.0000
46 H46 224.1892 156.4674 175.2082 H 778 ligands_prepared 0.0000
47 H47 225.7900 157.2764 176.9670 H 778 ligands_prepared 0.0000
@<TRIPOS>BOND
      1     1     2    2
      2     2     3   am
      3     2    19    1
      4     3     4    1
      5     3    26    1
      6     4     5    1
      7     4    11    1
      8     4    27    1
      9     5     6    1
     10     5    10    1
     11     5    28    1
     12     6     7    1
     13     6    29    1
     14     6    30    1
     15     7     8    1
     16     7    31    1
     17     7    32    1
     18     8     9    1
     19     8    11    1
     20     8    33    1
     21     9    10    1
     22     9    34    1
     23     9    35    1
     24    10    36    1
     25    10    37    1
     26    11    12    1
     27    11    38    1
     28    12    13    1
     29    12    39    1
     30    12    40    1
     31    13    14   ar
     32    13    18   ar
     33    14    15   ar
     34    14    41    1
     35    15    16   ar
     36    15    42    1
     37    16    17   ar
     38    16    43    1
     39    17    18   ar
     40    18    44    1
     41    19    20   ar
     42    19    25   ar
     43    20    21   ar
     44    20    45    1
     45    21    22   ar
     46    21    46    1
     47    22    23   ar
     48    22    47    1
     49    23    24    1
     50    23    25   ar
@<TRIPOS>MOLECULE
CHEMBL2179859_LIG
53 57 1 0 0
SMALL
USER_CHARGES

@<TRIPOS>ATOM
1 O1 224.9010 151.2464 177.0268 O.2 778 ligands_prepared 0.0000
2 C2 224.1378 152.1853 177.2116 C.2 778 ligands_prepared 0.0000
3 N3 222.8283 152.0204 177.5575 N.am 778 ligands_prepared 0.0000
4 C4 221.9418 153.1713 177.7242 C.3 778 ligands_prepared 0.0000
5 C5 221.8318 153.5908 179.2129 C.3 778 ligands_prepared 0.0000
6 C6 220.9812 154.8698 179.2620 C.3 778 ligands_prepared 0.0000
7 C7 219.5759 154.5738 178.7187 C.3 778 ligands_prepared 0.0000
8 N8 219.4767 153.1257 178.2802 N.4 778 ligands_prepared 1.0000
9 C9 219.7350 152.2263 179.4756 C.3 778 ligands_prepared 0.0000
10 C10 221.1390 152.4967 180.0369 C.3 778 ligands_prepared 0.0000
11 C11 220.5109 152.8028 177.2028 C.3 778 ligands_prepared 0.0000
12 C12 220.1817 153.5451 175.9046 C.3 778 ligands_prepared 0.0000
13 C13 219.0592 152.9044 175.1585 C.ar 778 ligands_prepared 0.0000
14 C14 217.7273 153.1231 175.5219 C.ar 778 ligands_prepared 0.0000
15 C15 216.7113 152.5201 174.7874 C.ar 778 ligands_prepared 0.0000
16 C16 217.0561 151.7004 173.7045 C.ar 778 ligands_prepared 0.0000
17 N17 218.3380 151.4629 173.3627 N.ar 778 ligands_prepared 0.0000
18 C18 219.3186 152.0495 174.0754 C.ar 778 ligands_prepared 0.0000
19 C19 224.6239 153.6094 177.1244 C.ar 778 ligands_prepared 0.0000
20 C20 224.1192 154.4235 176.0774 C.ar 778 ligands_prepared 0.0000
21 C21 224.5631 155.7203 175.9975 C.ar 778 ligands_prepared 0.0000
22 C22 225.4900 156.2010 176.9590 C.ar 778 ligands_prepared 0.0000
23 C23 226.0007 157.5274 176.9195 C.ar 778 ligands_prepared 0.0000
24 C24 226.8624 157.9607 177.8901 C.ar 778 ligands_prepared 0.0000
25 C25 227.2618 157.0931 178.9421 C.ar 778 ligands_prepared 0.0000
26 C26 226.8041 155.8028 179.0013 C.ar 778 ligands_prepared 0.0000
27 C27 225.9118 155.3277 177.9952 C.ar 778 ligands_prepared 0.0000
28 N28 225.4738 154.0235 178.0512 N.ar 778 ligands_prepared 0.0000
29 H29 222.4250 151.0912 177.7127 H 778 ligands_prepared 0.0000
30 H30 222.3546 154.0384 177.1312 H 778 ligands_prepared 0.0000
31 H31 222.8505 153.7915 179.6241 H 778 ligands_prepared 0.0000
32 H32 221.4565 155.6886 178.6858 H 778 ligands_prepared 0.0000
33 H33 220.9228 155.2464 180.3041 H 778 ligands_prepared 0.0000
34 H34 218.7940 154.7627 179.4940 H 778 ligands_prepared 0.0000
35 H35 219.3152 155.2353 177.8623 H 778 ligands_prepared 0.0000
36 H36 218.5136 152.9453 177.8960 H 778 ligands_prepared 0.0000
37 H37 218.9453 152.4092 180.2400 H 778 ligands_prepared 0.0000
38 H38 219.6096 151.1642 179.1609 H 778 ligands_prepared 0.0000
39 H39 221.0763 152.8086 181.1005 H 778 ligands_prepared 0.0000
40 H40 221.7384 151.5647 180.0560 H 778 ligands_prepared 0.0000
41 H41 220.4493 151.6917 177.0211 H 778 ligands_prepared 0.0000
42 H42 219.9779 154.6230 176.1030 H 778 ligands_prepared 0.0000
43 H43 221.1007 153.5670 175.2607 H 778 ligands_prepared 0.0000
44 H44 217.4831 153.7586 176.3783 H 778 ligands_prepared 0.0000
45 H45 215.6644 152.6774 175.0497 H 778 ligands_prepared 0.0000
46 H46 216.2897 151.2107 173.0862 H 778 ligands_prepared 0.0000
47 H47 220.3464 151.8167 173.7611 H 778 ligands_prepared 0.0000
48 H48 223.3952 154.0172 175.3664 H 778 ligands_prepared 0.0000
49 H49 224.2092 156.3942 175.2082 H 778 ligands_prepared 0.0000
50 H50 225.6912 158.1803 176.0976 H 778 ligands_prepared 0.0000
51 H51 227.2535 158.9825 177.8722 H 778 ligands_prepared 0.0000
52 H52 227.9449 157.4781 179.7051 H 778 ligands_prepared 0.0000
53 H53 227.1074 155.1252 179.8030 H 778 ligands_prepared 0.0000
@<TRIPOS>BOND
      1     1     2    2
      2     2     3   am
      3     2    19    1
      4     3     4    1
      5     3    29    1
      6     4     5    1
      7     4    11    1
      8     4    30    1
      9     5     6    1
     10     5    10    1
     11     5    31    1
     12     6     7    1
     13     6    32    1
     14     6    33    1
     15     7     8    1
     16     7    34    1
     17     7    35    1
     18     8     9    1
     19     8    11    1
     20     8    36    1
     21     9    10    1
     22     9    37    1
     23     9    38    1
     24    10    39    1
     25    10    40    1
     26    11    12    1
     27    11    41    1
     28    12    13    1
     29    12    42    1
     30    12    43    1
     31    13    14   ar
     32    13    18   ar
     33    14    15   ar
     34    14    44    1
     35    15    16   ar
     36    15    45    1
     37    16    17   ar
     38    16    46    1
     39    17    18   ar
     40    18    47    1
     41    19    20   ar
     42    19    28   ar
     43    20    21   ar
     44    20    48    1
     45    21    22   ar
     46    21    49    1
     47    22    23   ar
     48    22    27   ar
     49    23    24   ar
     50    23    50    1
     51    24    25   ar
     52    24    51    1
     53    25    26   ar
     54    25    52    1
     55    26    27   ar
     56    26    53    1
     57    27    28   ar
@<TRIPOS>MOLECULE
CHEMBL2179860_LIG
53 57 1 0 0
SMALL
USER_CHARGES

@<TRIPOS>ATOM
1 O1 223.2910 152.2934 176.9185 O.2 778 ligands_prepared 0.0000
2 C2 222.8612 153.3164 177.4361 C.2 778 ligands_prepared 0.0000
3 N3 223.5341 154.5033 177.3218 N.am 778 ligands_prepared 0.0000
4 C4 224.7848 154.5974 176.5776 C.3 778 ligands_prepared 0.0000
5 C5 225.8495 153.6232 177.1413 C.3 778 ligands_prepared 0.0000
6 C6 226.2705 154.0417 178.5565 C.3 778 ligands_prepared 0.0000
7 C7 226.8777 155.4515 178.5239 C.3 778 ligands_prepared 0.0000
8 N8 226.7926 156.0223 177.1190 N.4 778 ligands_prepared 1.0000
9 C9 227.5975 155.1432 176.1811 C.3 778 ligands_prepared 0.0000
10 C10 227.0717 153.7010 176.2172 C.3 778 ligands_prepared 0.0000
11 C11 225.3246 156.0618 176.7088 C.3 778 ligands_prepared 0.0000
12 C12 225.1406 156.8388 175.4039 C.3 778 ligands_prepared 0.0000
13 C13 226.0623 158.0075 175.3197 C.ar 778 ligands_prepared 0.0000
14 C14 226.0240 159.0271 176.2745 C.ar 778 ligands_prepared 0.0000
15 C15 226.8986 160.1020 176.1587 C.ar 778 ligands_prepared 0.0000
16 C16 227.7883 160.1326 175.0773 C.ar 778 ligands_prepared 0.0000
17 N17 227.8272 159.1580 174.1475 N.ar 778 ligands_prepared 0.0000
18 C18 226.9804 158.1170 174.2653 C.ar 778 ligands_prepared 0.0000
19 C19 221.5521 153.3794 178.1341 C.ar 778 ligands_prepared 0.0000
20 C20 221.5424 153.5097 179.5021 C.ar 778 ligands_prepared 0.0000
21 C21 220.3178 153.5205 180.2112 C.ar 778 ligands_prepared 0.0000
22 C22 219.1256 153.4018 179.5418 C.ar 778 ligands_prepared 0.0000
23 C23 219.1040 153.2865 178.1287 C.ar 778 ligands_prepared 0.0000
24 C24 217.8942 153.1685 177.3882 C.ar 778 ligands_prepared 0.0000
25 C25 217.9459 153.0606 176.0241 C.ar 778 ligands_prepared 0.0000
26 C26 219.2166 153.0802 175.3784 C.ar 778 ligands_prepared 0.0000
27 N27 220.3587 153.1854 176.0382 N.ar 778 ligands_prepared 0.0000
28 C28 220.3269 153.2804 177.4120 C.ar 778 ligands_prepared 0.0000
29 H29 223.2241 155.3277 177.8313 H 778 ligands_prepared 0.0000
30 H30 224.5966 154.3538 175.4910 H 778 ligands_prepared 0.0000
31 H31 225.4405 152.5846 177.1545 H 778 ligands_prepared 0.0000
32 H32 225.4172 153.9981 179.2622 H 778 ligands_prepared 0.0000
33 H33 227.0009 153.3147 178.9687 H 778 ligands_prepared 0.0000
34 H34 226.3530 156.1409 179.2263 H 778 ligands_prepared 0.0000
35 H35 227.9457 155.4437 178.8408 H 778 ligands_prepared 0.0000
36 H36 227.1817 156.9991 177.1002 H 778 ligands_prepared 0.0000
37 H37 228.6696 155.1903 176.4895 H 778 ligands_prepared 0.0000
38 H38 227.5562 155.5691 175.1548 H 778 ligands_prepared 0.0000
39 H39 227.8637 153.0092 176.5713 H 778 ligands_prepared 0.0000
40 H40 226.8205 153.3495 175.1966 H 778 ligands_prepared 0.0000
41 H41 224.7706 156.5902 177.5390 H 778 ligands_prepared 0.0000
42 H42 225.2396 156.1720 174.5175 H 778 ligands_prepared 0.0000
43 H43 224.0755 157.1883 175.3444 H 778 ligands_prepared 0.0000
44 H44 225.3108 158.9840 177.1039 H 778 ligands_prepared 0.0000
45 H45 226.8937 160.9087 176.8924 H 778 ligands_prepared 0.0000
46 H46 228.4969 160.9622 174.9396 H 778 ligands_prepared 0.0000
47 H47 227.0450 157.3519 173.4778 H 778 ligands_prepared 0.0000
48 H48 222.4827 153.5957 180.0608 H 778 ligands_prepared 0.0000
49 H49 220.3417 153.6132 181.3004 H 778 ligands_prepared 0.0000
50 H50 218.1746 153.3935 180.0839 H 778 ligands_prepared 0.0000
51 H51 216.9410 153.1653 177.9268 H 778 ligands_prepared 0.0000
52 H52 217.0448 152.9630 175.4196 H 778 ligands_prepared 0.0000
53 H53 219.2855 153.0074 174.2809 H 778 ligands_prepared 0.0000
@<TRIPOS>BOND
      1     1     2    2
      2     2     3   am
      3     2    19    1
      4     3     4    1
      5     3    29    1
      6     4     5    1
      7     4    11    1
      8     4    30    1
      9     5     6    1
     10     5    10    1
     11     5    31    1
     12     6     7    1
     13     6    32    1
     14     6    33    1
     15     7     8    1
     16     7    34    1
     17     7    35    1
     18     8     9    1
     19     8    11    1
     20     8    36    1
     21     9    10    1
     22     9    37    1
     23     9    38    1
     24    10    39    1
     25    10    40    1
     26    11    12    1
     27    11    41    1
     28    12    13    1
     29    12    42    1
     30    12    43    1
     31    13    14   ar
     32    13    18   ar
     33    14    15   ar
     34    14    44    1
     35    15    16   ar
     36    15    45    1
     37    16    17   ar
     38    16    46    1
     39    17    18   ar
     40    18    47    1
     41    19    20   ar
     42    19    28   ar
     43    20    21   ar
     44    20    48    1
     45    21    22   ar
     46    21    49    1
     47    22    23   ar
     48    22    50    1
     49    23    24   ar
     50    23    28   ar
     51    24    25   ar
     52    24    51    1
     53    25    26   ar
     54    25    52    1
     55    26    27   ar
     56    26    53    1
     57    27    28   ar
@<TRIPOS>MOLECULE
CHEMBL2179861_LIG
53 57 1 0 0
SMALL
USER_CHARGES

@<TRIPOS>ATOM
1 O1 223.3132 152.2307 176.9866 O.2 778 ligands_prepared 0.0000
2 C2 222.8766 153.2691 177.4551 C.2 778 ligands_prepared 0.0000
3 N3 223.5120 154.4682 177.3135 N.am 778 ligands_prepared 0.0000
4 C4 224.7802 154.5758 176.5955 C.3 778 ligands_prepared 0.0000
5 C5 225.8396 153.6041 177.1780 C.3 778 ligands_prepared 0.0000
6 C6 226.2046 154.0044 178.6122 C.3 778 ligands_prepared 0.0000
7 C7 226.7817 155.4258 178.6203 C.3 778 ligands_prepared 0.0000
8 N8 226.7549 156.0094 177.2179 N.4 778 ligands_prepared 1.0000
9 C9 227.6096 155.1522 176.3049 C.3 778 ligands_prepared 0.0000
10 C10 227.0946 153.7043 176.3002 C.3 778 ligands_prepared 0.0000
11 C11 225.3099 156.0416 176.7295 C.3 778 ligands_prepared 0.0000
12 C12 225.1948 156.7850 175.3938 C.3 778 ligands_prepared 0.0000
13 C13 226.0847 157.9797 175.3334 C.ar 778 ligands_prepared 0.0000
14 C14 226.0007 158.9890 176.2946 C.ar 778 ligands_prepared 0.0000
15 C15 226.8489 160.0891 176.2036 C.ar 778 ligands_prepared 0.0000
16 C16 227.7634 160.1471 175.1465 C.ar 778 ligands_prepared 0.0000
17 N17 227.8607 159.1698 174.2218 N.ar 778 ligands_prepared 0.0000
18 C18 227.0433 158.1053 174.3161 C.ar 778 ligands_prepared 0.0000
19 C19 221.5598 153.3193 178.1829 C.ar 778 ligands_prepared 0.0000
20 N20 221.6212 153.4233 179.4996 N.ar 778 ligands_prepared 0.0000
21 C21 220.4489 153.4603 180.2084 C.ar 778 ligands_prepared 0.0000
22 C22 219.2155 153.3992 179.5986 C.ar 778 ligands_prepared 0.0000
23 C23 219.1408 153.2854 178.1854 C.ar 778 ligands_prepared 0.0000
24 C24 217.8995 153.2125 177.4975 C.ar 778 ligands_prepared 0.0000
25 C25 217.8743 153.0934 176.1325 C.ar 778 ligands_prepared 0.0000
26 C26 219.0835 153.0431 175.3911 C.ar 778 ligands_prepared 0.0000
27 C27 220.2937 153.1161 176.0284 C.ar 778 ligands_prepared 0.0000
28 C28 220.3448 153.2387 177.4423 C.ar 778 ligands_prepared 0.0000
29 H29 223.1591 155.3136 177.7639 H 778 ligands_prepared 0.0000
30 H30 224.6158 154.3244 175.5073 H 778 ligands_prepared 0.0000
31 H31 225.4398 152.5620 177.1601 H 778 ligands_prepared 0.0000
32 H32 226.9401 153.2862 179.0329 H 778 ligands_prepared 0.0000
33 H33 225.3308 153.9284 179.2891 H 778 ligands_prepared 0.0000
34 H34 226.2152 156.1005 179.3033 H 778 ligands_prepared 0.0000
35 H35 227.8344 155.4352 178.9871 H 778 ligands_prepared 0.0000
36 H36 227.1306 156.9928 177.2344 H 778 ligands_prepared 0.0000
37 H37 228.6667 155.2057 176.6559 H 778 ligands_prepared 0.0000
38 H38 227.6062 155.5917 175.2820 H 778 ligands_prepared 0.0000
39 H39 226.8857 153.3675 175.2650 H 778 ligands_prepared 0.0000
40 H40 227.8791 153.0141 176.6733 H 778 ligands_prepared 0.0000
41 H41 224.7194 156.5975 177.5128 H 778 ligands_prepared 0.0000
42 H42 225.3840 156.0990 174.5349 H 778 ligands_prepared 0.0000
43 H43 224.1283 157.0932 175.2428 H 778 ligands_prepared 0.0000
44 H44 225.2831 158.9171 177.1170 H 778 ligands_prepared 0.0000
45 H45 226.8043 160.8911 176.9424 H 778 ligands_prepared 0.0000
46 H46 228.4489 160.9984 175.0249 H 778 ligands_prepared 0.0000
47 H47 227.1695 157.3280 173.5479 H 778 ligands_prepared 0.0000
48 H48 220.5692 153.5457 181.2966 H 778 ligands_prepared 0.0000
49 H49 218.2938 153.4377 180.1856 H 778 ligands_prepared 0.0000
50 H50 216.9750 153.2543 178.0783 H 778 ligands_prepared 0.0000
51 H51 216.9247 153.0351 175.5943 H 778 ligands_prepared 0.0000
52 H52 219.0311 152.9462 174.3032 H 778 ligands_prepared 0.0000
53 H53 221.2252 153.0755 175.4610 H 778 ligands_prepared 0.0000
@<TRIPOS>BOND
      1     1     2    2
      2     2     3   am
      3     2    19    1
      4     3     4    1
      5     3    29    1
      6     4     5    1
      7     4    11    1
      8     4    30    1
      9     5     6    1
     10     5    10    1
     11     5    31    1
     12     6     7    1
     13     6    32    1
     14     6    33    1
     15     7     8    1
     16     7    34    1
     17     7    35    1
     18     8     9    1
     19     8    11    1
     20     8    36    1
     21     9    10    1
     22     9    37    1
     23     9    38    1
     24    10    39    1
     25    10    40    1
     26    11    12    1
     27    11    41    1
     28    12    13    1
     29    12    42    1
     30    12    43    1
     31    13    14   ar
     32    13    18   ar
     33    14    15   ar
     34    14    44    1
     35    15    16   ar
     36    15    45    1
     37    16    17   ar
     38    16    46    1
     39    17    18   ar
     40    18    47    1
     41    19    20   ar
     42    19    28   ar
     43    20    21   ar
     44    21    22   ar
     45    21    48    1
     46    22    23   ar
     47    22    49    1
     48    23    24   ar
     49    23    28   ar
     50    24    25   ar
     51    24    50    1
     52    25    26   ar
     53    25    51    1
     54    26    27   ar
     55    26    52    1
     56    27    28   ar
     57    27    53    1
@<TRIPOS>MOLECULE
CHEMBL2179862_LIG
53 57 1 0 0
SMALL
USER_CHARGES

@<TRIPOS>ATOM
1 O1 224.8412 151.0931 176.9484 O.2 778 ligands_prepared 0.0000
2 C2 224.1317 152.0708 177.1419 C.2 778 ligands_prepared 0.0000
3 N3 222.8170 151.9488 177.4955 N.am 778 ligands_prepared 0.0000
4 C4 221.9705 153.1267 177.6750 C.3 778 ligands_prepared 0.0000
5 C5 221.8945 153.5291 179.1703 C.3 778 ligands_prepared 0.0000
6 C6 221.1515 152.4567 179.9792 C.3 778 ligands_prepared 0.0000
7 C7 219.7321 152.2620 179.4246 C.3 778 ligands_prepared 0.0000
8 N8 219.5137 153.1893 178.2385 N.4 778 ligands_prepared 1.0000
9 C9 219.6824 154.6124 178.7308 C.3 778 ligands_prepared 0.0000
10 C10 221.1145 154.8493 179.2288 C.3 778 ligands_prepared 0.0000
11 C11 220.5288 152.8030 177.1663 C.3 778 ligands_prepared 0.0000
12 C12 220.1767 153.3869 175.7936 C.3 778 ligands_prepared 0.0000
13 C13 219.0022 152.8133 175.0788 C.ar 778 ligands_prepared 0.0000
14 C14 217.6948 153.1013 175.4871 C.ar 778 ligands_prepared 0.0000
15 C15 216.6231 152.5429 174.7981 C.ar 778 ligands_prepared 0.0000
16 C16 216.8880 151.6762 173.7306 C.ar 778 ligands_prepared 0.0000
17 N17 218.1433 151.3594 173.3550 N.ar 778 ligands_prepared 0.0000
18 C18 219.1759 151.9115 174.0172 C.ar 778 ligands_prepared 0.0000
19 C19 224.6657 153.4700 177.0791 C.ar 778 ligands_prepared 0.0000
20 C20 225.5673 153.9027 178.0208 C.ar 778 ligands_prepared 0.0000
21 C21 225.9982 155.2596 177.9749 C.ar 778 ligands_prepared 0.0000
22 C22 226.9051 155.7979 178.9247 C.ar 778 ligands_prepared 0.0000
23 C23 227.2580 157.1239 178.8645 C.ar 778 ligands_prepared 0.0000
24 C24 226.7262 157.9665 177.8569 C.ar 778 ligands_prepared 0.0000
25 C25 225.8642 157.4625 176.9147 C.ar 778 ligands_prepared 0.0000
26 C26 225.4867 156.0970 176.9590 C.ar 778 ligands_prepared 0.0000
27 C27 224.5829 155.5213 176.0079 C.ar 778 ligands_prepared 0.0000
28 N28 224.1858 154.2627 176.0623 N.ar 778 ligands_prepared 0.0000
29 H29 222.3851 151.0370 177.6440 H 778 ligands_prepared 0.0000
30 H30 222.4076 153.9843 177.0928 H 778 ligands_prepared 0.0000
31 H31 222.9240 153.6703 179.5777 H 778 ligands_prepared 0.0000
32 H32 221.1137 152.7453 181.0502 H 778 ligands_prepared 0.0000
33 H33 221.7038 151.4952 179.9700 H 778 ligands_prepared 0.0000
34 H34 218.9558 152.4757 180.1941 H 778 ligands_prepared 0.0000
35 H35 219.5568 151.2107 179.1005 H 778 ligands_prepared 0.0000
36 H36 218.5368 153.0628 177.8619 H 778 ligands_prepared 0.0000
37 H37 219.4029 155.3243 177.9267 H 778 ligands_prepared 0.0000
38 H38 218.9411 154.7888 179.5480 H 778 ligands_prepared 0.0000
39 H39 221.1026 155.2532 180.2622 H 778 ligands_prepared 0.0000
40 H40 221.6150 155.6345 178.6254 H 778 ligands_prepared 0.0000
41 H41 220.4358 151.6731 177.0548 H 778 ligands_prepared 0.0000
42 H42 220.0233 154.4904 175.9315 H 778 ligands_prepared 0.0000
43 H43 221.0855 153.3446 175.1397 H 778 ligands_prepared 0.0000
44 H44 217.5129 153.7573 176.3443 H 778 ligands_prepared 0.0000
45 H45 215.5961 152.7700 175.0837 H 778 ligands_prepared 0.0000
46 H46 216.0764 151.2067 173.1564 H 778 ligands_prepared 0.0000
47 H47 220.1811 151.6108 173.6783 H 778 ligands_prepared 0.0000
48 H48 225.9391 153.2418 178.8086 H 778 ligands_prepared 0.0000
49 H49 227.3078 155.1436 179.7005 H 778 ligands_prepared 0.0000
50 H50 227.9479 157.5507 179.5984 H 778 ligands_prepared 0.0000
51 H51 227.0149 159.0219 177.8441 H 778 ligands_prepared 0.0000
52 H52 225.4531 158.1019 176.1287 H 778 ligands_prepared 0.0000
53 H53 224.1804 156.1398 175.1866 H 778 ligands_prepared 0.0000
@<TRIPOS>BOND
      1     1     2    2
      2     2     3   am
      3     2    19    1
      4     3     4    1
      5     3    29    1
      6     4     5    1
      7     4    11    1
      8     4    30    1
      9     5     6    1
     10     5    10    1
     11     5    31    1
     12     6     7    1
     13     6    32    1
     14     6    33    1
     15     7     8    1
     16     7    34    1
     17     7    35    1
     18     8     9    1
     19     8    11    1
     20     8    36    1
     21     9    10    1
     22     9    37    1
     23     9    38    1
     24    10    39    1
     25    10    40    1
     26    11    12    1
     27    11    41    1
     28    12    13    1
     29    12    42    1
     30    12    43    1
     31    13    14   ar
     32    13    18   ar
     33    14    15   ar
     34    14    44    1
     35    15    16   ar
     36    15    45    1
     37    16    17   ar
     38    16    46    1
     39    17    18   ar
     40    18    47    1
     41    19    20   ar
     42    19    28   ar
     43    20    21   ar
     44    20    48    1
     45    21    22   ar
     46    21    26   ar
     47    22    23   ar
     48    22    49    1
     49    23    24   ar
     50    23    50    1
     51    24    25   ar
     52    24    51    1
     53    25    26   ar
     54    25    52    1
     55    26    27   ar
     56    27    28   ar
     57    27    53    1
@<TRIPOS>MOLECULE
CHEMBL2179863_LIG
48 51 1 0 0
SMALL
USER_CHARGES

@<TRIPOS>ATOM
1 C1 226.6651 155.9922 178.6932 C.3 778 ligands_prepared 0.0000
2 C2 225.7000 155.3695 177.7914 C.2 778 ligands_prepared 0.0000
3 C3 224.9404 155.7877 176.7235 C.2 778 ligands_prepared 0.0000
4 C4 224.1669 154.6577 176.2998 C.2 778 ligands_prepared 0.0000
5 C5 224.5072 153.6211 177.1314 C.2 778 ligands_prepared 0.0000
6 C6 224.0722 152.2325 177.2157 C.2 778 ligands_prepared 0.0000
7 O7 224.8460 151.2997 177.0204 O.2 778 ligands_prepared 0.0000
8 N8 222.7529 152.0008 177.5084 N.am 778 ligands_prepared 0.0000
9 C9 221.8405 153.1153 177.7487 C.3 778 ligands_prepared 0.0000
10 C10 221.7045 153.3942 179.2679 C.3 778 ligands_prepared 0.0000
11 C11 220.9051 152.2738 179.9466 C.3 778 ligands_prepared 0.0000
12 C12 219.4693 152.2609 179.3996 C.3 778 ligands_prepared 0.0000
13 N13 219.3669 153.1902 178.2021 N.4 778 ligands_prepared 1.0000
14 C14 219.6009 154.6163 178.6672 C.3 778 ligands_prepared 0.0000
15 C15 220.9372 154.7156 179.4173 C.3 778 ligands_prepared 0.0000
16 C16 220.4218 152.7726 177.1804 C.3 778 ligands_prepared 0.0000
17 C17 220.1753 153.4621 175.8357 C.3 778 ligands_prepared 0.0000
18 C18 219.0241 152.8554 175.1068 C.ar 778 ligands_prepared 0.0000
19 C19 217.7082 153.1051 175.5076 C.ar 778 ligands_prepared 0.0000
20 C20 216.6591 152.5270 174.7994 C.ar 778 ligands_prepared 0.0000
21 C21 216.9576 151.7090 173.7030 C.ar 778 ligands_prepared 0.0000
22 N22 218.2238 151.4483 173.3204 N.ar 778 ligands_prepared 0.0000
23 C23 219.2367 152.0073 174.0111 C.ar 778 ligands_prepared 0.0000
24 O24 225.4555 154.0363 178.0613 O.3 778 ligands_prepared 0.0000
25 H25 226.2477 156.1447 179.7085 H 778 ligands_prepared 0.0000
26 H26 227.5758 155.3793 178.8310 H 778 ligands_prepared 0.0000
27 H27 226.9968 156.9822 178.3313 H 778 ligands_prepared 0.0000
28 H28 224.9133 156.7621 176.2761 H 778 ligands_prepared 0.0000
29 H29 223.4629 154.6438 175.4856 H 778 ligands_prepared 0.0000
30 H30 222.3635 151.0605 177.5274 H 778 ligands_prepared 0.0000
31 H31 222.2409 154.0373 177.2365 H 778 ligands_prepared 0.0000
32 H32 222.7148 153.4810 179.7340 H 778 ligands_prepared 0.0000
33 H33 220.8989 152.4177 181.0470 H 778 ligands_prepared 0.0000
34 H34 221.3915 151.2879 179.8026 H 778 ligands_prepared 0.0000
35 H35 219.1563 151.2367 179.0928 H 778 ligands_prepared 0.0000
36 H36 218.7372 152.5913 180.1711 H 778 ligands_prepared 0.0000
37 H37 218.4134 153.1174 177.7642 H 778 ligands_prepared 0.0000
38 H38 218.7478 154.9209 179.3183 H 778 ligands_prepared 0.0000
39 H39 219.5738 155.2971 177.7875 H 778 ligands_prepared 0.0000
40 H40 221.5348 155.5679 179.0352 H 778 ligands_prepared 0.0000
41 H41 220.7717 154.9407 180.4901 H 778 ligands_prepared 0.0000
42 H42 220.3279 151.6574 177.0509 H 778 ligands_prepared 0.0000
43 H43 221.1088 153.3807 175.2185 H 778 ligands_prepared 0.0000
44 H44 220.0531 154.5621 175.9589 H 778 ligands_prepared 0.0000
45 H45 217.5030 153.7441 176.3721 H 778 ligands_prepared 0.0000
46 H46 215.6227 152.7032 175.0911 H 778 ligands_prepared 0.0000
47 H47 216.1653 151.2368 173.1062 H 778 ligands_prepared 0.0000
48 H48 220.2504 151.7520 173.6687 H 778 ligands_prepared 0.0000
@<TRIPOS>BOND
      1     1     2    1
      2     1    25    1
      3     1    26    1
      4     1    27    1
      5     2     3    2
      6     2    24    1
      7     3     4    1
      8     3    28    1
      9     4     5    2
     10     4    29    1
     11     5     6    1
     12     5    24    1
     13     6     7    2
     14     6     8   am
     15     8     9    1
     16     8    30    1
     17     9    10    1
     18     9    16    1
     19     9    31    1
     20    10    11    1
     21    10    15    1
     22    10    32    1
     23    11    12    1
     24    11    33    1
     25    11    34    1
     26    12    13    1
     27    12    35    1
     28    12    36    1
     29    13    14    1
     30    13    16    1
     31    13    37    1
     32    14    15    1
     33    14    38    1
     34    14    39    1
     35    15    40    1
     36    15    41    1
     37    16    17    1
     38    16    42    1
     39    17    18    1
     40    17    43    1
     41    17    44    1
     42    18    19   ar
     43    18    23   ar
     44    19    20   ar
     45    19    45    1
     46    20    21   ar
     47    20    46    1
     48    21    22   ar
     49    21    47    1
     50    22    23   ar
     51    23    48    1
@<TRIPOS>MOLECULE
CHEMBL2179864_LIG
45 48 1 0 0
SMALL
USER_CHARGES

@<TRIPOS>ATOM
1 O1 224.7279 151.0554 176.9009 O.2 778 ligands_prepared 0.0000
2 C2 224.0377 152.0402 177.1330 C.2 778 ligands_prepared 0.0000
3 N3 222.7068 151.9221 177.4316 N.am 778 ligands_prepared 0.0000
4 C4 221.9083 153.1212 177.6793 C.3 778 ligands_prepared 0.0000
5 C5 221.9744 153.5314 179.1709 C.3 778 ligands_prepared 0.0000
6 C6 221.1753 154.8364 179.3111 C.3 778 ligands_prepared 0.0000
7 C7 219.7007 154.5711 178.9743 C.3 778 ligands_prepared 0.0000
8 N8 219.5200 153.1448 178.4914 N.4 778 ligands_prepared 0.0000
9 C9 219.8963 152.1910 179.6119 C.3 778 ligands_prepared 0.0000
10 C10 221.3376 152.4604 180.0669 C.3 778 ligands_prepared 0.0000
11 C11 220.4155 152.8522 177.2909 C.3 778 ligands_prepared 0.0000
12 C12 220.0028 153.6939 176.0797 C.3 778 ligands_prepared 0.0000
13 C13 218.9588 153.0183 175.2570 C.ar 778 ligands_prepared 0.0000
14 C14 217.6108 153.3602 175.3827 C.ar 778 ligands_prepared 0.0000
15 C15 216.6649 152.6993 174.6046 C.ar 778 ligands_prepared 0.0000
16 C16 217.0993 151.7141 173.7110 C.ar 778 ligands_prepared 0.0000
17 N17 218.3997 151.3878 173.5722 N.ar 778 ligands_prepared 0.0000
18 C18 219.3116 152.0278 174.3280 C.ar 778 ligands_prepared 0.0000
19 C19 224.5684 153.4058 177.0960 C.2 778 ligands_prepared 0.0000
20 C20 224.2503 154.5537 176.4165 C.2 778 ligands_prepared 0.0000
21 C21 225.2135 155.5247 176.8453 C.2 778 ligands_prepared 0.0000
22 Cl22 225.2872 157.1081 176.3104 Cl 778 ligands_prepared 0.0000
23 C23 226.0423 154.9163 177.7541 C.2 778 ligands_prepared 0.0000
24 O24 225.6689 153.6087 177.9230 O.3 778 ligands_prepared 0.0000
25 H25 222.2243 151.0248 177.4209 H 778 ligands_prepared 0.0000
26 H26 222.3160 153.9639 177.0474 H 778 ligands_prepared 0.0000
27 H27 223.0373 153.6959 179.4701 H 778 ligands_prepared 0.0000
28 H28 221.2722 155.2373 180.3405 H 778 ligands_prepared 0.0000
29 H29 221.5931 155.6275 178.6567 H 778 ligands_prepared 0.0000
30 H30 219.3249 155.2725 178.1958 H 778 ligands_prepared 0.0000
31 H31 219.0481 154.7243 179.8666 H 778 ligands_prepared 0.0000
32 H32 218.5167 152.9911 178.2121 H 778 ligands_prepared 0.0000
33 H33 219.1734 152.3222 180.4498 H 778 ligands_prepared 0.0000
34 H34 219.7653 151.1438 179.2539 H 778 ligands_prepared 0.0000
35 H35 221.3528 152.7970 181.1248 H 778 ligands_prepared 0.0000
36 H36 221.9297 151.5233 180.0691 H 778 ligands_prepared 0.0000
37 H37 220.2785 151.7601 177.0482 H 778 ligands_prepared 0.0000
38 H38 219.6767 154.7137 176.3896 H 778 ligands_prepared 0.0000
39 H39 220.9174 153.8961 175.4623 H 778 ligands_prepared 0.0000
40 H40 217.2967 154.1414 176.0808 H 778 ligands_prepared 0.0000
41 H41 215.6042 152.9430 174.6889 H 778 ligands_prepared 0.0000
42 H42 216.3908 151.1596 173.0780 H 778 ligands_prepared 0.0000
43 H43 220.3595 151.7292 174.1767 H 778 ligands_prepared 0.0000
44 H44 223.4578 154.7116 175.7037 H 778 ligands_prepared 0.0000
45 H45 226.8879 155.2108 178.3498 H 778 ligands_prepared 0.0000
@<TRIPOS>BOND
      1     1     2    2
      2     2     3   am
      3     2    19    1
      4     3     4    1
      5     3    25    1
      6     4     5    1
      7     4    11    1
      8     4    26    1
      9     5     6    1
     10     5    10    1
     11     5    27    1
     12     6     7    1
     13     6    28    1
     14     6    29    1
     15     7     8    1
     16     7    30    1
     17     7    31    1
     18     8     9    1
     19     8    11    1
     20     8    32    1
     21     9    10    1
     22     9    33    1
     23     9    34    1
     24    10    35    1
     25    10    36    1
     26    11    12    1
     27    11    37    1
     28    12    13    1
     29    12    38    1
     30    12    39    1
     31    13    14   ar
     32    13    18   ar
     33    14    15   ar
     34    14    40    1
     35    15    16   ar
     36    15    41    1
     37    16    17   ar
     38    16    42    1
     39    17    18   ar
     40    18    43    1
     41    19    20    2
     42    19    24    1
     43    20    21    1
     44    20    44    1
     45    21    22    1
     46    21    23    2
     47    23    24    1
     48    23    45    1
@<TRIPOS>MOLECULE
CHEMBL2179865_LIG
45 48 1 0 0
SMALL
USER_CHARGES

@<TRIPOS>ATOM
1 O1 221.8869 152.6135 176.7113 O.2 778 ligands_prepared 0.0000
2 C2 221.9909 153.3951 177.6474 C.2 778 ligands_prepared 0.0000
3 N3 223.0571 154.2477 177.7467 N.am 778 ligands_prepared 0.0000
4 C4 224.0766 154.2428 176.6972 C.3 778 ligands_prepared 0.0000
5 C5 224.7849 152.8678 176.6199 C.3 778 ligands_prepared 0.0000
6 C6 225.5731 152.5925 177.9063 C.3 778 ligands_prepared 0.0000
7 C7 226.5915 153.7154 178.1486 C.3 778 ligands_prepared 0.0000
8 N8 226.5353 154.7188 177.0106 N.4 778 ligands_prepared 0.0000
9 C9 226.8267 154.0039 175.7060 C.3 778 ligands_prepared 0.0000
10 C10 225.7587 152.9350 175.4336 C.3 778 ligands_prepared 0.0000
11 C11 225.1470 155.3514 176.9897 C.3 778 ligands_prepared 0.0000
12 C12 225.0683 156.4739 175.9503 C.3 778 ligands_prepared 0.0000
13 C13 225.8915 157.6624 176.3116 C.ar 778 ligands_prepared 0.0000
14 C14 226.6042 157.7019 177.5127 C.ar 778 ligands_prepared 0.0000
15 C15 227.3796 158.8198 177.8111 C.ar 778 ligands_prepared 0.0000
16 C16 227.4272 159.8692 176.8870 C.ar 778 ligands_prepared 0.0000
17 N17 226.7507 159.8356 175.7201 N.ar 778 ligands_prepared 0.0000
18 C18 226.0015 158.7537 175.4367 C.ar 778 ligands_prepared 0.0000
19 C19 220.9810 153.4750 178.7052 C.2 778 ligands_prepared 0.0000
20 O20 221.4459 153.6983 179.9931 O.3 778 ligands_prepared 0.0000
21 C21 220.3333 153.7423 180.8028 C.2 778 ligands_prepared 0.0000
22 C22 219.1863 153.5618 180.0747 C.2 778 ligands_prepared 0.0000
23 C23 219.6132 153.3890 178.7160 C.2 778 ligands_prepared 0.0000
24 Br24 218.4994 153.1204 177.2574 Br 778 ligands_prepared 0.0000
25 H25 223.1447 154.9294 178.5002 H 778 ligands_prepared 0.0000
26 H26 223.5732 154.4557 175.7096 H 778 ligands_prepared 0.0000
27 H27 224.0327 152.0584 176.4523 H 778 ligands_prepared 0.0000
28 H28 224.8988 152.4841 178.7800 H 778 ligands_prepared 0.0000
29 H29 226.0858 151.6102 177.8360 H 778 ligands_prepared 0.0000
30 H30 226.3969 154.2471 179.1080 H 778 ligands_prepared 0.0000
31 H31 227.6296 153.3173 178.2231 H 778 ligands_prepared 0.0000
32 H32 227.2493 155.4767 177.1645 H 778 ligands_prepared 0.0000
33 H33 226.8776 154.7497 174.8816 H 778 ligands_prepared 0.0000
34 H34 227.8452 153.5528 175.7719 H 778 ligands_prepared 0.0000
35 H35 226.2325 151.9469 175.2654 H 778 ligands_prepared 0.0000
36 H36 225.2164 153.1533 174.4904 H 778 ligands_prepared 0.0000
37 H37 224.9749 155.7828 178.0155 H 778 ligands_prepared 0.0000
38 H38 225.3323 156.0991 174.9342 H 778 ligands_prepared 0.0000
39 H39 223.9900 156.7717 175.8384 H 778 ligands_prepared 0.0000
40 H40 226.5685 156.8597 178.2105 H 778 ligands_prepared 0.0000
41 H41 227.9401 158.8767 178.7450 H 778 ligands_prepared 0.0000
42 H42 228.0296 160.7701 177.0726 H 778 ligands_prepared 0.0000
43 H43 225.4788 158.7685 174.4697 H 778 ligands_prepared 0.0000
44 H44 220.5726 153.9103 181.8378 H 778 ligands_prepared 0.0000
45 H45 218.1720 153.5518 180.4322 H 778 ligands_prepared 0.0000
@<TRIPOS>BOND
      1     1     2    2
      2     2     3   am
      3     2    19    1
      4     3     4    1
      5     3    25    1
      6     4     5    1
      7     4    11    1
      8     4    26    1
      9     5     6    1
     10     5    10    1
     11     5    27    1
     12     6     7    1
     13     6    28    1
     14     6    29    1
     15     7     8    1
     16     7    30    1
     17     7    31    1
     18     8     9    1
     19     8    11    1
     20     8    32    1
     21     9    10    1
     22     9    33    1
     23     9    34    1
     24    10    35    1
     25    10    36    1
     26    11    12    1
     27    11    37    1
     28    12    13    1
     29    12    38    1
     30    12    39    1
     31    13    14   ar
     32    13    18   ar
     33    14    15   ar
     34    14    40    1
     35    15    16   ar
     36    15    41    1
     37    16    17   ar
     38    16    42    1
     39    17    18   ar
     40    18    43    1
     41    19    20    1
     42    19    23    2
     43    20    21    1
     44    21    22    2
     45    21    44    1
     46    22    23    1
     47    22    45    1
     48    23    24    1
@<TRIPOS>MOLECULE
CHEMBL2179866_LIG
45 48 1 0 0
SMALL
USER_CHARGES

@<TRIPOS>ATOM
1 O1 224.8005 151.2698 176.9426 O.2 778 ligands_prepared 0.0000
2 C2 224.0507 152.2071 177.1852 C.2 778 ligands_prepared 0.0000
3 N3 222.7362 152.0085 177.5146 N.am 778 ligands_prepared 0.0000
4 C4 221.8486 153.1414 177.7653 C.3 778 ligands_prepared 0.0000
5 C5 221.7260 153.4071 179.2894 C.3 778 ligands_prepared 0.0000
6 C6 221.0131 154.7553 179.4539 C.3 778 ligands_prepared 0.0000
7 C7 219.6615 154.7008 178.7285 C.3 778 ligands_prepared 0.0000
8 N8 219.3842 153.2997 178.2168 N.4 778 ligands_prepared 0.0000
9 C9 219.4460 152.3514 179.4054 C.3 778 ligands_prepared 0.0000
10 C10 220.8789 152.3160 179.9605 C.3 778 ligands_prepared 0.0000
11 C11 220.4259 152.8266 177.2068 C.3 778 ligands_prepared 0.0000
12 C12 220.1634 153.3515 175.7916 C.3 778 ligands_prepared 0.0000
13 C13 218.9824 152.7967 175.0735 C.ar 778 ligands_prepared 0.0000
14 C14 217.6824 153.0980 175.4896 C.ar 778 ligands_prepared 0.0000
15 C15 216.6019 152.5578 174.7997 C.ar 778 ligands_prepared 0.0000
16 C16 216.8516 151.7151 173.7108 C.ar 778 ligands_prepared 0.0000
17 N17 218.1006 151.3877 173.3241 N.ar 778 ligands_prepared 0.0000
18 C18 219.1434 151.9095 173.9975 C.ar 778 ligands_prepared 0.0000
19 C19 224.5151 153.5944 177.1219 C.2 778 ligands_prepared 0.0000
20 C20 224.2381 154.6397 176.2791 C.2 778 ligands_prepared 0.0000
21 C21 225.0166 155.7582 176.7417 C.2 778 ligands_prepared 0.0000
22 C22 225.7061 155.3002 177.8314 C.2 778 ligands_prepared 0.0000
23 Br23 226.9001 156.0260 179.0278 Br 778 ligands_prepared 0.0000
24 O24 225.4310 153.9822 178.0983 O.3 778 ligands_prepared 0.0000
25 H25 222.3202 151.0786 177.5303 H 778 ligands_prepared 0.0000
26 H26 222.2710 154.0559 177.2640 H 778 ligands_prepared 0.0000
27 H27 222.7410 153.4459 179.7531 H 778 ligands_prepared 0.0000
28 H28 220.8708 154.9850 180.5303 H 778 ligands_prepared 0.0000
29 H29 221.6338 155.5875 179.0668 H 778 ligands_prepared 0.0000
30 H30 219.6256 155.4218 177.8868 H 778 ligands_prepared 0.0000
31 H31 218.8271 154.9934 179.4116 H 778 ligands_prepared 0.0000
32 H32 218.4277 153.2682 177.7774 H 778 ligands_prepared 0.0000
33 H33 218.7160 152.6935 180.1738 H 778 ligands_prepared 0.0000
34 H34 219.1023 151.3424 179.0820 H 778 ligands_prepared 0.0000
35 H35 221.3296 151.3140 179.8192 H 778 ligands_prepared 0.0000
36 H36 220.8678 152.4636 181.0602 H 778 ligands_prepared 0.0000
37 H37 220.3087 151.6966 177.1497 H 778 ligands_prepared 0.0000
38 H38 221.0881 153.2220 175.1762 H 778 ligands_prepared 0.0000
39 H39 220.0647 154.4681 175.8678 H 778 ligands_prepared 0.0000
40 H40 217.5151 153.7503 176.3515 H 778 ligands_prepared 0.0000
41 H41 215.5785 152.7851 175.1013 H 778 ligands_prepared 0.0000
42 H42 216.0322 151.2729 173.1266 H 778 ligands_prepared 0.0000
43 H43 220.1434 151.5917 173.6594 H 778 ligands_prepared 0.0000
44 H44 223.5737 154.6480 175.4299 H 778 ligands_prepared 0.0000
45 H45 225.0304 156.7387 176.3006 H 778 ligands_prepared 0.0000
@<TRIPOS>BOND
      1     1     2    2
      2     2     3   am
      3     2    19    1
      4     3     4    1
      5     3    25    1
      6     4     5    1
      7     4    11    1
      8     4    26    1
      9     5     6    1
     10     5    10    1
     11     5    27    1
     12     6     7    1
     13     6    28    1
     14     6    29    1
     15     7     8    1
     16     7    30    1
     17     7    31    1
     18     8     9    1
     19     8    11    1
     20     8    32    1
     21     9    10    1
     22     9    33    1
     23     9    34    1
     24    10    35    1
     25    10    36    1
     26    11    12    1
     27    11    37    1
     28    12    13    1
     29    12    38    1
     30    12    39    1
     31    13    14   ar
     32    13    18   ar
     33    14    15   ar
     34    14    40    1
     35    15    16   ar
     36    15    41    1
     37    16    17   ar
     38    16    42    1
     39    17    18   ar
     40    18    43    1
     41    19    20    2
     42    19    24    1
     43    20    21    1
     44    20    44    1
     45    21    22    2
     46    21    45    1
     47    22    23    1
     48    22    24    1
@<TRIPOS>MOLECULE
CHEMBL2179867_LIG
54 58 1 0 0
SMALL
USER_CHARGES

@<TRIPOS>ATOM
1 O1 224.1473 152.1235 177.4718 O.2 778 ligands_prepared 0.0000
2 C2 223.4658 153.0992 177.1877 C.2 778 ligands_prepared 0.0000
3 N3 224.0241 154.2324 176.6575 N.am 778 ligands_prepared 0.0000
4 C4 225.4699 154.3378 176.4886 C.3 778 ligands_prepared 0.0000
5 C5 226.2045 154.0078 177.8126 C.3 778 ligands_prepared 0.0000
6 C6 227.7061 153.9692 177.4959 C.3 778 ligands_prepared 0.0000
7 C7 228.1546 155.3362 176.9581 C.3 778 ligands_prepared 0.0000
8 N8 226.9849 156.3011 176.9399 N.4 778 ligands_prepared 1.0000
9 C9 226.4531 156.4476 178.3545 C.3 778 ligands_prepared 0.0000
10 C10 225.9395 155.0935 178.8633 C.3 778 ligands_prepared 0.0000
11 C11 225.8582 155.7868 176.0460 C.3 778 ligands_prepared 0.0000
12 C12 226.2706 155.8004 174.5700 C.3 778 ligands_prepared 0.0000
13 C13 227.1003 156.9930 174.2405 C.ar 778 ligands_prepared 0.0000
14 C14 228.4224 156.8560 173.8117 C.ar 778 ligands_prepared 0.0000
15 C15 229.1703 157.9963 173.5331 C.ar 778 ligands_prepared 0.0000
16 C16 228.5632 159.2491 173.6789 C.ar 778 ligands_prepared 0.0000
17 N17 227.2808 159.3896 174.0723 N.ar 778 ligands_prepared 0.0000
18 C18 226.5631 158.2851 174.3485 C.ar 778 ligands_prepared 0.0000
19 C19 222.0186 153.1291 177.4212 C.2 778 ligands_prepared 0.0000
20 C20 221.2362 153.4123 178.5111 C.2 778 ligands_prepared 0.0000
21 C21 219.8748 153.3115 178.0655 C.2 778 ligands_prepared 0.0000
22 C22 219.9210 152.9782 176.7337 C.2 778 ligands_prepared 0.0000
23 C23 218.9437 152.7563 175.6850 C.ar 778 ligands_prepared 0.0000
24 C24 217.5983 153.1102 175.8561 C.ar 778 ligands_prepared 0.0000
25 C25 216.7068 152.8649 174.8119 C.ar 778 ligands_prepared 0.0000
26 C26 217.1760 152.2786 173.6399 C.ar 778 ligands_prepared 0.0000
27 C27 218.5365 151.9510 173.5496 C.ar 778 ligands_prepared 0.0000
28 N28 219.4077 152.1828 174.5461 N.ar 778 ligands_prepared 0.0000
29 O29 221.2351 152.8494 176.3117 O.3 778 ligands_prepared 0.0000
30 H30 223.4559 155.0245 176.3672 H 778 ligands_prepared 0.0000
31 H31 225.7970 153.6032 175.6949 H 778 ligands_prepared 0.0000
32 H32 225.8668 153.0141 178.1946 H 778 ligands_prepared 0.0000
33 H33 228.2816 153.7005 178.4056 H 778 ligands_prepared 0.0000
34 H34 227.9371 153.1664 176.7659 H 778 ligands_prepared 0.0000
35 H35 228.5839 155.2544 175.9345 H 778 ligands_prepared 0.0000
36 H36 228.9627 155.7740 177.5924 H 778 ligands_prepared 0.0000
37 H37 227.3039 157.2383 176.5796 H 778 ligands_prepared 0.0000
38 H38 227.2712 156.8430 179.0020 H 778 ligands_prepared 0.0000
39 H39 225.6533 157.2234 178.3643 H 778 ligands_prepared 0.0000
40 H40 224.8643 155.1553 179.1219 H 778 ligands_prepared 0.0000
41 H41 226.4354 154.8256 179.8202 H 778 ligands_prepared 0.0000
42 H42 224.9854 156.4833 176.1953 H 778 ligands_prepared 0.0000
43 H43 225.3395 155.7828 173.9457 H 778 ligands_prepared 0.0000
44 H44 226.7851 154.8556 174.2826 H 778 ligands_prepared 0.0000
45 H45 228.8681 155.8656 173.6873 H 778 ligands_prepared 0.0000
46 H46 230.2086 157.9149 173.2101 H 778 ligands_prepared 0.0000
47 H47 229.1114 160.1801 173.4725 H 778 ligands_prepared 0.0000
48 H48 225.5220 158.4469 174.6628 H 778 ligands_prepared 0.0000
49 H49 221.5558 153.6633 179.5084 H 778 ligands_prepared 0.0000
50 H50 219.0001 153.4745 178.6709 H 778 ligands_prepared 0.0000
51 H51 217.2518 153.5654 176.7840 H 778 ligands_prepared 0.0000
52 H52 215.6509 153.1320 174.9197 H 778 ligands_prepared 0.0000
53 H53 216.5031 152.0774 172.8047 H 778 ligands_prepared 0.0000
54 H54 218.9548 151.4811 172.6463 H 778 ligands_prepared 0.0000
@<TRIPOS>BOND
      1     1     2    2
      2     2     3   am
      3     2    19    1
      4     3     4    1
      5     3    30    1
      6     4     5    1
      7     4    11    1
      8     4    31    1
      9     5     6    1
     10     5    10    1
     11     5    32    1
     12     6     7    1
     13     6    33    1
     14     6    34    1
     15     7     8    1
     16     7    35    1
     17     7    36    1
     18     8     9    1
     19     8    11    1
     20     8    37    1
     21     9    10    1
     22     9    38    1
     23     9    39    1
     24    10    40    1
     25    10    41    1
     26    11    12    1
     27    11    42    1
     28    12    13    1
     29    12    43    1
     30    12    44    1
     31    13    14   ar
     32    13    18   ar
     33    14    15   ar
     34    14    45    1
     35    15    16   ar
     36    15    46    1
     37    16    17   ar
     38    16    47    1
     39    17    18   ar
     40    18    48    1
     41    19    20    2
     42    19    29    1
     43    20    21    1
     44    20    49    1
     45    21    22    2
     46    21    50    1
     47    22    23    1
     48    22    29    1
     49    23    24   ar
     50    23    28   ar
     51    24    25   ar
     52    24    51    1
     53    25    26   ar
     54    25    52    1
     55    26    27   ar
     56    26    53    1
     57    27    28   ar
     58    27    54    1
@<TRIPOS>MOLECULE
CHEMBL2179868_LIG
55 59 1 0 0
SMALL
USER_CHARGES

@<TRIPOS>ATOM
1 O1 223.7454 151.9429 177.5000 O.2 778 ligands_prepared 0.0000
2 C2 223.1384 152.9865 177.2933 C.2 778 ligands_prepared 0.0000
3 N3 223.7838 154.1276 176.9029 N.am 778 ligands_prepared 0.0000
4 C4 225.2315 154.1380 176.7065 C.3 778 ligands_prepared 0.0000
5 C5 225.9635 153.7471 178.0168 C.3 778 ligands_prepared 0.0000
6 C6 225.8814 154.8914 179.0377 C.3 778 ligands_prepared 0.0000
7 C7 226.6309 156.1222 178.5040 C.3 778 ligands_prepared 0.0000
8 N8 226.9845 155.9036 177.0405 N.4 778 ligands_prepared 1.0000
9 C9 227.9941 154.7737 176.9791 C.3 778 ligands_prepared 0.0000
10 C10 227.4346 153.5107 177.6493 C.3 778 ligands_prepared 0.0000
11 C11 225.6887 155.5743 176.3017 C.3 778 ligands_prepared 0.0000
12 C12 225.7888 155.8100 174.7923 C.3 778 ligands_prepared 0.0000
13 C13 226.9314 156.6349 174.3092 C.ar 778 ligands_prepared 0.0000
14 C14 228.2300 156.1183 174.2890 C.ar 778 ligands_prepared 0.0000
15 C15 229.2753 156.9133 173.8277 C.ar 778 ligands_prepared 0.0000
16 C16 228.9936 158.2193 173.4104 C.ar 778 ligands_prepared 0.0000
17 N17 227.7512 158.7399 173.4615 N.ar 778 ligands_prepared 0.0000
18 C18 226.7443 157.9674 173.9108 C.ar 778 ligands_prepared 0.0000
19 C19 221.6840 153.1017 177.4500 C.2 778 ligands_prepared 0.0000
20 C20 220.8330 153.3955 178.4826 C.2 778 ligands_prepared 0.0000
21 C21 219.5068 153.3236 177.9424 C.2 778 ligands_prepared 0.0000
22 C22 219.6406 152.9979 176.6117 C.2 778 ligands_prepared 0.0000
23 C23 218.7303 152.7938 175.5115 C.ar 778 ligands_prepared 0.0000
24 C24 219.1738 152.1945 174.3269 C.ar 778 ligands_prepared 0.0000
25 C25 218.2842 151.9986 173.2743 C.ar 778 ligands_prepared 0.0000
26 C26 216.9552 152.3998 173.3991 C.ar 778 ligands_prepared 0.0000
27 C27 216.5140 153.0045 174.5756 C.ar 778 ligands_prepared 0.0000
28 C28 217.3969 153.2021 175.6321 C.ar 778 ligands_prepared 0.0000
29 O29 220.9789 152.8457 176.2855 O.3 778 ligands_prepared 0.0000
30 H30 223.2792 154.9935 176.7016 H 778 ligands_prepared 0.0000
31 H31 225.5029 153.4005 175.9014 H 778 ligands_prepared 0.0000
32 H32 225.5148 152.8179 178.4435 H 778 ligands_prepared 0.0000
33 H33 224.8289 155.1436 179.2730 H 778 ligands_prepared 0.0000
34 H34 226.3160 154.5698 180.0069 H 778 ligands_prepared 0.0000
35 H35 226.0289 157.0525 178.5981 H 778 ligands_prepared 0.0000
36 H36 227.5685 156.3061 179.0754 H 778 ligands_prepared 0.0000
37 H37 227.4060 156.7785 176.6344 H 778 ligands_prepared 0.0000
38 H38 228.9314 155.1136 177.4838 H 778 ligands_prepared 0.0000
39 H39 228.2764 154.5801 175.9235 H 778 ligands_prepared 0.0000
40 H40 228.0202 153.2538 178.5573 H 778 ligands_prepared 0.0000
41 H41 227.5448 152.6337 176.9805 H 778 ligands_prepared 0.0000
42 H42 224.9191 156.3154 176.6882 H 778 ligands_prepared 0.0000
43 H43 224.8208 156.2335 174.4250 H 778 ligands_prepared 0.0000
44 H44 225.8230 154.8017 174.2999 H 778 ligands_prepared 0.0000
45 H45 228.4230 155.0990 174.6333 H 778 ligands_prepared 0.0000
46 H46 230.2953 156.5284 173.7947 H 778 ligands_prepared 0.0000
47 H47 229.7811 158.8830 173.0246 H 778 ligands_prepared 0.0000
48 H48 225.7527 158.4459 173.9572 H 778 ligands_prepared 0.0000
49 H49 221.0800 153.6323 179.5039 H 778 ligands_prepared 0.0000
50 H50 218.6029 153.5018 178.4924 H 778 ligands_prepared 0.0000
51 H51 220.2145 151.8819 174.2223 H 778 ligands_prepared 0.0000
52 H52 218.6315 151.5306 172.3509 H 778 ligands_prepared 0.0000
53 H53 216.2587 152.2389 172.5744 H 778 ligands_prepared 0.0000
54 H54 215.4739 153.3218 174.6689 H 778 ligands_prepared 0.0000
55 H55 217.0496 153.6736 176.5532 H 778 ligands_prepared 0.0000
@<TRIPOS>BOND
      1     1     2    2
      2     2     3   am
      3     2    19    1
      4     3     4    1
      5     3    30    1
      6     4     5    1
      7     4    11    1
      8     4    31    1
      9     5     6    1
     10     5    10    1
     11     5    32    1
     12     6     7    1
     13     6    33    1
     14     6    34    1
     15     7     8    1
     16     7    35    1
     17     7    36    1
     18     8     9    1
     19     8    11    1
     20     8    37    1
     21     9    10    1
     22     9    38    1
     23     9    39    1
     24    10    40    1
     25    10    41    1
     26    11    12    1
     27    11    42    1
     28    12    13    1
     29    12    43    1
     30    12    44    1
     31    13    14   ar
     32    13    18   ar
     33    14    15   ar
     34    14    45    1
     35    15    16   ar
     36    15    46    1
     37    16    17   ar
     38    16    47    1
     39    17    18   ar
     40    18    48    1
     41    19    20    2
     42    19    29    1
     43    20    21    1
     44    20    49    1
     45    21    22    2
     46    21    50    1
     47    22    23    1
     48    22    29    1
     49    23    24   ar
     50    23    28   ar
     51    24    25   ar
     52    24    51    1
     53    25    26   ar
     54    25    52    1
     55    26    27   ar
     56    26    53    1
     57    27    28   ar
     58    27    54    1
     59    28    55    1
@<TRIPOS>MOLECULE
CHEMBL2179869_LIG
44 47 1 0 0
SMALL
USER_CHARGES

@<TRIPOS>ATOM
1 O1 228.0885 156.0904 177.5560 O.2 778 ligands_prepared 0.0000
2 C2 227.9274 157.1862 178.0726 C.2 778 ligands_prepared 0.0000
3 N3 227.7303 158.3261 177.3482 N.am 778 ligands_prepared 0.0000
4 C4 227.7027 158.3004 175.8875 C.3 778 ligands_prepared 0.0000
5 C5 227.8913 159.7209 175.2939 C.3 778 ligands_prepared 0.0000
6 C6 227.9414 159.5644 173.7669 C.3 778 ligands_prepared 0.0000
7 C7 226.6060 158.9946 173.2678 C.3 778 ligands_prepared 0.0000
8 N8 225.6806 158.7127 174.4368 N.4 778 ligands_prepared 0.0000
9 C9 225.3972 160.0127 175.1685 C.3 778 ligands_prepared 0.0000
10 C10 226.7129 160.6315 175.6630 C.3 778 ligands_prepared 0.0000
11 C11 226.3183 157.7383 175.4240 C.3 778 ligands_prepared 0.0000
12 C12 226.4596 156.3482 174.7967 C.3 778 ligands_prepared 0.0000
13 C13 226.1159 155.2677 175.7655 C.ar 778 ligands_prepared 0.0000
14 C14 225.0856 155.4259 176.6943 C.ar 778 ligands_prepared 0.0000
15 C15 224.7988 154.3889 177.5769 C.ar 778 ligands_prepared 0.0000
16 C16 225.5517 153.2117 177.5004 C.ar 778 ligands_prepared 0.0000
17 N17 226.5415 153.0460 176.5982 N.ar 778 ligands_prepared 0.0000
18 C18 226.8152 154.0493 175.7471 C.ar 778 ligands_prepared 0.0000
19 C19 227.9019 157.3611 179.5480 C.2 778 ligands_prepared 0.0000
20 C20 227.5136 158.5627 180.2476 C.2 778 ligands_prepared 0.0000
21 C21 227.6349 158.2310 181.5704 C.2 778 ligands_prepared 0.0000
22 O22 228.0616 156.9261 181.6858 O.3 778 ligands_prepared 0.0000
23 N23 228.2215 156.4098 180.4225 N.2 778 ligands_prepared 0.0000
24 H24 228.5140 159.0000 177.6246 H 778 ligands_prepared 0.0000
25 H25 228.4969 157.6488 175.5231 H 778 ligands_prepared 0.0000
26 H26 228.8241 160.1544 175.6547 H 778 ligands_prepared 0.0000
27 H27 228.7498 158.8846 173.4977 H 778 ligands_prepared 0.0000
28 H28 228.1158 160.5373 173.3075 H 778 ligands_prepared 0.0000
29 H29 226.7916 158.0676 172.7253 H 778 ligands_prepared 0.0000
30 H30 226.1337 159.7173 172.6024 H 778 ligands_prepared 0.0000
31 H31 224.7624 158.3012 174.0730 H 778 ligands_prepared 0.0000
32 H32 224.7487 159.8132 176.0216 H 778 ligands_prepared 0.0000
33 H33 224.9028 160.7085 174.4907 H 778 ligands_prepared 0.0000
34 H34 226.8507 161.6071 175.1967 H 778 ligands_prepared 0.0000
35 H36 225.6696 157.6582 176.2964 H 778 ligands_prepared 0.0000
36 H38 227.4898 156.2125 174.4675 H 778 ligands_prepared 0.0000
37 H39 224.5119 156.3521 176.7279 H 778 ligands_prepared 0.0000
38 H40 224.0025 154.4915 178.3141 H 778 ligands_prepared 0.0000
39 H41 225.3309 152.4002 178.1938 H 778 ligands_prepared 0.0000
40 H42 227.6104 153.9126 175.0144 H 778 ligands_prepared 0.0000
41 H43 227.1970 159.5145 179.8210 H 778 ligands_prepared 0.0000
42 H44 227.4256 158.8987 182.4062 H 778 ligands_prepared 0.0000
43 H258 225.7912 156.2786 173.9385 H 778 ligands_prepared 0.0000
44 H260 226.6723 160.7484 176.7459 H 778 ligands_prepared 0.0000
@<TRIPOS>BOND
      1     1     2    2
      2     2     3   am
      3     4     3    1
      4     4     5    1
      5     4    11    1
      6     5     6    1
      7     5    10    1
      8     6     7    1
      9     7     8    1
     10     8     9    1
     11     8    11    1
     12     9    10    1
     13    11    12    1
     14    12    13    1
     15    13    14   ar
     16    13    18   ar
     17    14    15   ar
     18    15    16   ar
     19    16    17   ar
     20    17    18   ar
     21    19    20    1
     22    19    23    2
     23    20    21    2
     24    21    22    1
     25    22    23    1
     26     2    19    1
     27    20    41    1
     28    42    21    1
     29     4    25    1
     30    24     3    1
     31    37    14    1
     32    38    15    1
     33    39    16    1
     34    40    18    1
     35    12    43    1
     36    36    12    1
     37    28     6    1
     38     6    27    1
     39    26     5    1
     40    10    44    1
     41    34    10    1
     42    35    11    1
     43    31     8    1
     44    30     7    1
     45    29     7    1
     46    33     9    1
     47     9    32    1
@<TRIPOS>MOLECULE
CHEMBL2179870_LIG
54 58 1 0 0
SMALL
USER_CHARGES

@<TRIPOS>ATOM
1 O1 226.8029 150.9082 177.3723 O.2 778 ligands_prepared 0.0000
2 C2 226.3445 152.0203 177.1592 C.2 778 ligands_prepared 0.0000
3 N3 227.1409 153.1099 176.9472 N.am 778 ligands_prepared 0.0000
4 C4 226.5495 154.4205 176.6797 C.3 778 ligands_prepared 0.0000
5 C5 226.7112 154.7964 175.1852 C.3 778 ligands_prepared 0.0000
6 C6 225.9853 156.1337 174.9765 C.3 778 ligands_prepared 0.0000
7 C7 226.6692 157.2234 175.8149 C.3 778 ligands_prepared 0.0000
8 N8 227.7825 156.6233 176.6509 N.4 778 ligands_prepared 0.0000
9 C9 228.8299 156.0353 175.7234 C.3 778 ligands_prepared 0.0000
10 C10 228.1915 154.9709 174.8204 C.3 778 ligands_prepared 0.0000
11 C11 227.2540 155.5110 177.5541 C.3 778 ligands_prepared 0.0000
12 C12 226.2935 156.0795 178.6034 C.3 778 ligands_prepared 0.0000
13 C13 226.9908 156.9852 179.5607 C.ar 778 ligands_prepared 0.0000
14 C14 227.1402 158.3479 179.2893 C.ar 778 ligands_prepared 0.0000
15 C15 227.7922 159.1603 180.2123 C.ar 778 ligands_prepared 0.0000
16 C16 228.2769 158.5829 181.3914 C.ar 778 ligands_prepared 0.0000
17 N17 228.1317 157.2699 181.6654 N.ar 778 ligands_prepared 0.0000
18 C18 227.5003 156.4878 180.7703 C.ar 778 ligands_prepared 0.0000
19 C19 224.8846 152.2876 177.1521 C.2 778 ligands_prepared 0.0000
20 C20 224.0648 152.5846 178.2991 C.2 778 ligands_prepared 0.0000
21 C21 222.7921 152.7072 177.7909 C.2 778 ligands_prepared 0.0000
22 C22 221.4943 152.9856 178.3491 C.ar 778 ligands_prepared 0.0000
23 C23 221.3669 153.4054 179.6785 C.ar 778 ligands_prepared 0.0000
24 C24 220.1046 153.6732 180.1993 C.ar 778 ligands_prepared 0.0000
25 C25 218.9711 153.5244 179.4015 C.ar 778 ligands_prepared 0.0000
26 C26 219.0973 153.1070 178.0768 C.ar 778 ligands_prepared 0.0000
27 C27 220.3565 152.8382 177.5466 C.ar 778 ligands_prepared 0.0000
28 O28 222.8335 152.5027 176.4162 O.3 778 ligands_prepared 0.0000
29 N29 224.1298 152.2435 176.0568 N.2 778 ligands_prepared 0.0000
30 H30 228.2052 153.0036 176.9771 H 778 ligands_prepared 0.0000
31 H31 225.4888 154.3922 176.9290 H 778 ligands_prepared 0.0000
32 H32 226.2615 154.0272 174.5575 H 778 ligands_prepared 0.0000
33 H33 224.9454 156.0350 175.2879 H 778 ligands_prepared 0.0000
34 H34 226.0250 156.4079 173.9224 H 778 ligands_prepared 0.0000
35 H35 225.9336 157.6846 176.4738 H 778 ligands_prepared 0.0000
36 H36 227.0867 157.9795 175.1499 H 778 ligands_prepared 0.0000
37 H37 228.2283 157.3882 177.2519 H 778 ligands_prepared 0.0000
38 H38 229.6216 155.5778 176.3167 H 778 ligands_prepared 0.0000
39 H40 228.2727 155.2841 173.7796 H 778 ligands_prepared 0.0000
40 H41 228.7115 154.0226 174.9566 H 778 ligands_prepared 0.0000
41 H42 228.0977 155.0514 178.0687 H 778 ligands_prepared 0.0000
42 H43 225.8496 155.2536 179.1591 H 778 ligands_prepared 0.0000
43 H44 225.5086 156.6401 178.0958 H 778 ligands_prepared 0.0000
44 H45 226.7498 158.7706 178.3635 H 778 ligands_prepared 0.0000
45 H46 227.9228 160.2253 180.0207 H 778 ligands_prepared 0.0000
46 H47 228.7902 159.2168 182.1145 H 778 ligands_prepared 0.0000
47 H48 227.3801 155.4276 180.9932 H 778 ligands_prepared 0.0000
48 H49 224.3818 152.6889 179.3367 H 778 ligands_prepared 0.0000
49 H50 222.2527 153.5220 180.3030 H 778 ligands_prepared 0.0000
50 H51 220.0018 154.0002 181.2340 H 778 ligands_prepared 0.0000
51 H52 217.9843 153.7348 179.8138 H 778 ligands_prepared 0.0000
52 H53 218.2090 152.9910 177.4557 H 778 ligands_prepared 0.0000
53 H54 220.4561 152.5143 176.5107 H 778 ligands_prepared 0.0000
54 H265 229.2505 156.8282 175.1050 H 778 ligands_prepared 0.0000
@<TRIPOS>BOND
      1     1     2    2
      2     2     3   am
      3     2    19    1
      4     4     3    1
      5     4     5    1
      6     4    11    1
      7     5     6    1
      8     5    10    1
      9     6     7    1
     10     7     8    1
     11     8     9    1
     12     8    11    1
     13     9    10    1
     14    11    12    1
     15    12    13    1
     16    13    14   ar
     17    13    18   ar
     18    14    15   ar
     19    15    16   ar
     20    16    17   ar
     21    17    18   ar
     22    19    20    1
     23    19    29    2
     24    20    21    2
     25    21    22    1
     26    21    28    1
     27    22    23   ar
     28    22    27   ar
     29    23    24   ar
     30    24    25   ar
     31    25    26   ar
     32    26    27   ar
     33    28    29    1
     34    37     8    1
     35    50    24    1
     36    49    23    1
     37    53    27    1
     38    52    26    1
     39    51    25    1
     40    30     3    1
     41    32     5    1
     42    44    14    1
     43    47    18    1
     44    46    16    1
     45    45    15    1
     46    31     4    1
     47    43    12    1
     48    42    12    1
     49    41    11    1
     50    40    10    1
     51     9    54    1
     52     7    36    1
     53    34     6    1
     54    48    20    1
     55    33     6    1
     56    39    10    1
     57    38     9    1
     58    35     7    1
@<TRIPOS>MOLECULE
CHEMBL2179871_LIG
52 55 1 0 0
SMALL
USER_CHARGES

@<TRIPOS>ATOM
1 O1 224.4722 151.5937 176.8822 O.2 778 ligands_prepared 0.0000
2 C2 223.7030 152.4954 177.1920 C.2 778 ligands_prepared 0.0000
3 C3 224.1535 153.8904 177.3912 C.2 778 ligands_prepared 0.0000
4 C4 225.2868 154.3883 176.8816 C.2 778 ligands_prepared 0.0000
5 C5 225.7610 155.7558 177.0938 C.ar 778 ligands_prepared 0.0000
6 C6 225.5435 156.7079 176.0882 C.ar 778 ligands_prepared 0.0000
7 C7 226.0064 158.0123 176.2403 C.ar 778 ligands_prepared 0.0000
8 C8 226.6886 158.3825 177.3988 C.ar 778 ligands_prepared 0.0000
9 C9 226.9130 157.4414 178.4002 C.ar 778 ligands_prepared 0.0000
10 C10 226.4520 156.1346 178.2507 C.ar 778 ligands_prepared 0.0000
11 N11 222.3586 152.2445 177.3245 N.am 778 ligands_prepared 0.0000
12 C12 221.4251 153.2770 177.7792 C.3 778 ligands_prepared 0.0000
13 C13 221.5380 153.4599 179.3158 C.3 778 ligands_prepared 0.0000
14 C14 221.0578 152.1985 180.0466 C.3 778 ligands_prepared 0.0000
15 C15 219.6051 151.8934 179.6574 C.3 778 ligands_prepared 0.0000
16 N16 219.0933 152.9474 178.6933 N.4 778 ligands_prepared 1.0000
17 C17 219.1773 154.3057 179.3642 C.3 778 ligands_prepared 0.0000
18 C18 220.6351 154.6371 179.7113 C.3 778 ligands_prepared 0.0000
19 C19 219.9479 152.9028 177.4264 C.3 778 ligands_prepared 0.0000
20 C20 219.3675 153.8469 176.3688 C.3 778 ligands_prepared 0.0000
21 C21 218.5280 153.1317 175.3654 C.ar 778 ligands_prepared 0.0000
22 C22 217.1500 153.3532 175.2851 C.ar 778 ligands_prepared 0.0000
23 C23 216.4014 152.6459 174.3505 C.ar 778 ligands_prepared 0.0000
24 C24 217.0525 151.7223 173.5230 C.ar 778 ligands_prepared 0.0000
25 N25 218.3805 151.5019 173.5938 N.ar 778 ligands_prepared 0.0000
26 C26 219.1031 152.1927 174.4969 C.ar 778 ligands_prepared 0.0000
27 H27 223.4537 154.4805 177.9943 H 778 ligands_prepared 0.0000
28 H28 225.9408 153.7674 176.2527 H 778 ligands_prepared 0.0000
29 H29 225.0139 156.4243 175.1774 H 778 ligands_prepared 0.0000
30 H30 225.8357 158.7450 175.4499 H 778 ligands_prepared 0.0000
31 H31 227.0429 159.4090 177.5178 H 778 ligands_prepared 0.0000
32 H32 227.4526 157.7256 179.3061 H 778 ligands_prepared 0.0000
33 H33 226.6411 155.4018 179.0384 H 778 ligands_prepared 0.0000
34 H34 221.9799 151.3146 177.1653 H 778 ligands_prepared 0.0000
35 H35 221.6967 154.2458 177.2684 H 778 ligands_prepared 0.0000
36 H36 222.5957 153.6845 179.5951 H 778 ligands_prepared 0.0000
37 H37 221.7125 151.3313 179.8295 H 778 ligands_prepared 0.0000
38 H38 221.1459 152.3403 181.1443 H 778 ligands_prepared 0.0000
39 H39 219.5108 150.8911 179.1793 H 778 ligands_prepared 0.0000
40 H40 218.9388 151.8755 180.5505 H 778 ligands_prepared 0.0000
41 H41 218.0914 152.7466 178.4369 H 778 ligands_prepared 0.0000
42 H42 218.5385 154.2849 180.2800 H 778 ligands_prepared 0.0000
43 H43 218.7273 155.0754 178.6991 H 778 ligands_prepared 0.0000
44 H44 220.9588 155.5727 179.2128 H 778 ligands_prepared 0.0000
45 H45 220.7360 154.8487 180.7961 H 778 ligands_prepared 0.0000
46 H46 219.9117 151.8438 177.0430 H 778 ligands_prepared 0.0000
47 H47 218.8170 154.6899 176.8422 H 778 ligands_prepared 0.0000
48 H48 220.2239 154.3568 175.8477 H 778 ligands_prepared 0.0000
49 H49 216.6639 154.0706 175.9530 H 778 ligands_prepared 0.0000
50 H50 215.3248 152.8015 174.2629 H 778 ligands_prepared 0.0000
51 H51 216.5015 151.1292 172.7794 H 778 ligands_prepared 0.0000
52 H52 220.1801 151.9704 174.5236 H 778 ligands_prepared 0.0000
@<TRIPOS>BOND
      1     1     2    2
      2     2     3    1
      3     2    11   am
      4     3     4    2
      5     3    27    1
      6     4     5    1
      7     4    28    1
      8     5     6   ar
      9     5    10   ar
     10     6     7   ar
     11     6    29    1
     12     7     8   ar
     13     7    30    1
     14     8     9   ar
     15     8    31    1
     16     9    10   ar
     17     9    32    1
     18    10    33    1
     19    11    12    1
     20    11    34    1
     21    12    13    1
     22    12    19    1
     23    12    35    1
     24    13    14    1
     25    13    18    1
     26    13    36    1
     27    14    15    1
     28    14    37    1
     29    14    38    1
     30    15    16    1
     31    15    39    1
     32    15    40    1
     33    16    17    1
     34    16    19    1
     35    16    41    1
     36    17    18    1
     37    17    42    1
     38    17    43    1
     39    18    44    1
     40    18    45    1
     41    19    20    1
     42    19    46    1
     43    20    21    1
     44    20    47    1
     45    20    48    1
     46    21    22   ar
     47    21    26   ar
     48    22    23   ar
     49    22    49    1
     50    23    24   ar
     51    23    50    1
     52    24    25   ar
     53    24    51    1
     54    25    26   ar
     55    26    52    1
@<TRIPOS>MOLECULE
CHEMBL2179872_LIG
52 55 1 0 0
SMALL
USER_CHARGES

@<TRIPOS>ATOM
1 C1 227.1937 156.1019 179.5574 C.3 778 ligands_prepared 0.0000
2 C2 226.6369 156.5449 178.2647 C.2 778 ligands_prepared 0.0000
3 C3 226.8088 157.9076 177.8170 C.2 778 ligands_prepared 0.0000
4 C4 226.2622 158.1560 176.5970 C.2 778 ligands_prepared 0.0000
5 S5 225.5218 156.7236 175.9496 S.3 778 ligands_prepared 0.0000
6 C6 225.9468 155.7706 177.3648 C.2 778 ligands_prepared 0.0000
7 C7 225.5580 154.3878 177.4298 C.2 778 ligands_prepared 0.0000
8 C8 224.2872 153.9666 177.3245 C.2 778 ligands_prepared 0.0000
9 C9 223.9729 152.5274 177.3672 C.2 778 ligands_prepared 0.0000
10 O10 224.8167 151.6444 177.2402 O.2 778 ligands_prepared 0.0000
11 N11 222.6503 152.1911 177.5283 N.am 778 ligands_prepared 0.0000
12 C12 221.6368 153.2258 177.7018 C.3 778 ligands_prepared 0.0000
13 C13 221.4501 153.5724 179.2010 C.3 778 ligands_prepared 0.0000
14 C14 220.8738 152.3764 179.9677 C.3 778 ligands_prepared 0.0000
15 C15 219.5349 151.9551 179.3457 C.3 778 ligands_prepared 0.0000
16 N16 219.1848 152.8775 178.1911 N.4 778 ligands_prepared 1.0000
17 C17 219.1014 154.3011 178.7083 C.3 778 ligands_prepared 0.0000
18 C18 220.4567 154.7412 179.2797 C.3 778 ligands_prepared 0.0000
19 C19 220.2643 152.7430 177.1216 C.3 778 ligands_prepared 0.0000
20 C20 219.8926 153.5431 175.8685 C.3 778 ligands_prepared 0.0000
21 C21 218.7832 152.9158 175.0961 C.ar 778 ligands_prepared 0.0000
22 C22 217.4609 153.3345 175.2591 C.ar 778 ligands_prepared 0.0000
23 C23 216.4541 152.7225 174.5187 C.ar 778 ligands_prepared 0.0000
24 C24 216.8022 151.7107 173.6171 C.ar 778 ligands_prepared 0.0000
25 N25 218.0780 151.3095 173.4407 N.ar 778 ligands_prepared 0.0000
26 C26 219.0484 151.8993 174.1644 C.ar 778 ligands_prepared 0.0000
27 H27 227.5287 155.0527 179.5421 H 778 ligands_prepared 0.0000
28 H28 228.0597 156.7051 179.8753 H 778 ligands_prepared 0.0000
29 H29 226.4475 156.1795 180.3690 H 778 ligands_prepared 0.0000
30 H30 227.3272 158.6385 178.4259 H 778 ligands_prepared 0.0000
31 H31 226.2562 159.0915 176.0553 H 778 ligands_prepared 0.0000
32 H32 226.3661 153.6488 177.5665 H 778 ligands_prepared 0.0000
33 H33 223.4445 154.6455 177.1845 H 778 ligands_prepared 0.0000
34 H34 222.3341 151.2248 177.4827 H 778 ligands_prepared 0.0000
35 H35 221.9720 154.1547 177.1533 H 778 ligands_prepared 0.0000
36 H36 222.4314 153.8720 179.6421 H 778 ligands_prepared 0.0000
37 H37 220.7410 152.6396 181.0381 H 778 ligands_prepared 0.0000
38 H38 221.5821 151.5240 179.9857 H 778 ligands_prepared 0.0000
39 H39 219.5680 150.9063 178.9726 H 778 ligands_prepared 0.0000
40 H40 218.7079 151.9932 180.0927 H 778 ligands_prepared 0.0000
41 H41 218.2584 152.5983 177.7751 H 778 ligands_prepared 0.0000
42 H42 218.3016 154.3456 179.4853 H 778 ligands_prepared 0.0000
43 H43 218.7637 154.9719 177.8884 H 778 ligands_prepared 0.0000
44 H44 220.3433 155.0779 180.3307 H 778 ligands_prepared 0.0000
45 H45 220.8431 155.6285 178.7389 H 778 ligands_prepared 0.0000
46 H46 220.3281 151.6486 176.8636 H 778 ligands_prepared 0.0000
47 H47 220.8079 153.6333 175.2254 H 778 ligands_prepared 0.0000
48 H48 219.6580 154.6015 176.1276 H 778 ligands_prepared 0.0000
49 H49 217.2143 154.1423 175.9547 H 778 ligands_prepared 0.0000
50 H50 215.4124 153.0247 174.6360 H 778 ligands_prepared 0.0000
51 H51 216.0455 151.1982 173.0066 H 778 ligands_prepared 0.0000
52 H52 220.0727 151.5462 173.9793 H 778 ligands_prepared 0.0000
@<TRIPOS>BOND
      1     1     2    1
      2     1    27    1
      3     1    28    1
      4     1    29    1
      5     2     3    1
      6     2     6    2
      7     3     4    2
      8     3    30    1
      9     4     5    1
     10     4    31    1
     11     5     6    1
     12     6     7    1
     13     7     8    2
     14     7    32    1
     15     8     9    1
     16     8    33    1
     17     9    10    2
     18     9    11   am
     19    11    12    1
     20    11    34    1
     21    12    13    1
     22    12    19    1
     23    12    35    1
     24    13    14    1
     25    13    18    1
     26    13    36    1
     27    14    15    1
     28    14    37    1
     29    14    38    1
     30    15    16    1
     31    15    39    1
     32    15    40    1
     33    16    17    1
     34    16    19    1
     35    16    41    1
     36    17    18    1
     37    17    42    1
     38    17    43    1
     39    18    44    1
     40    18    45    1
     41    19    20    1
     42    19    46    1
     43    20    21    1
     44    20    47    1
     45    20    48    1
     46    21    22   ar
     47    21    26   ar
     48    22    23   ar
     49    22    49    1
     50    23    24   ar
     51    23    50    1
     52    24    25   ar
     53    24    51    1
     54    25    26   ar
     55    26    52    1
@<TRIPOS>MOLECULE
CHEMBL2179873_LIG
45 48 1 0 0
SMALL
USER_CHARGES

@<TRIPOS>ATOM
1 O1 224.8028 151.2450 176.9991 O.2 778 ligands_prepared 0.0000
2 C2 224.0589 152.2069 177.1701 C.2 778 ligands_prepared 0.0000
3 N3 222.7419 152.0092 177.5010 N.am 778 ligands_prepared 0.0000
4 C4 221.8410 153.1489 177.6494 C.3 778 ligands_prepared 0.0000
5 C5 221.7576 153.6094 179.1257 C.3 778 ligands_prepared 0.0000
6 C6 221.1386 152.5194 180.0096 C.3 778 ligands_prepared 0.0000
7 C7 219.7611 152.1231 179.4582 C.3 778 ligands_prepared 0.0000
8 N8 219.4015 153.0059 178.2746 N.4 778 ligands_prepared 1.0000
9 C9 219.4355 154.4575 178.7105 C.3 778 ligands_prepared 0.0000
10 C10 220.8501 154.8484 179.1616 C.3 778 ligands_prepared 0.0000
11 C11 220.4089 152.7421 177.1595 C.3 778 ligands_prepared 0.0000
12 C12 220.0385 153.5022 175.8831 C.3 778 ligands_prepared 0.0000
13 C13 218.9449 152.8338 175.1237 C.ar 778 ligands_prepared 0.0000
14 C14 219.2332 151.9280 174.1006 C.ar 778 ligands_prepared 0.0000
15 C15 218.1872 151.3291 173.4050 C.ar 778 ligands_prepared 0.0000
16 C16 216.8727 151.6526 173.7591 C.ar 778 ligands_prepared 0.0000
17 N17 216.5843 152.5103 174.7595 N.ar 778 ligands_prepared 0.0000
18 C18 217.5991 153.0870 175.4310 C.ar 778 ligands_prepared 0.0000
19 C19 224.5136 153.5909 177.0427 C.2 778 ligands_prepared 0.0000
20 C20 224.0716 154.5548 176.1742 C.2 778 ligands_prepared 0.0000
21 C21 224.7493 155.8050 176.3304 C.2 778 ligands_prepared 0.0000
22 C22 225.6958 155.7602 177.3137 C.2 778 ligands_prepared 0.0000
23 Br23 226.7960 157.1735 177.8216 Br 778 ligands_prepared 0.0000
24 S24 225.7802 154.1992 178.0663 S.3 778 ligands_prepared 0.0000
25 H25 222.3388 151.0786 177.5751 H 778 ligands_prepared 0.0000
26 H26 222.2273 154.0050 177.0225 H 778 ligands_prepared 0.0000
27 H27 222.7778 153.8681 179.4968 H 778 ligands_prepared 0.0000
28 H28 221.0470 152.8863 181.0532 H 778 ligands_prepared 0.0000
29 H29 221.8009 151.6346 180.0874 H 778 ligands_prepared 0.0000
30 H30 218.9658 152.2240 180.2316 H 778 ligands_prepared 0.0000
31 H31 219.7399 151.0575 179.1326 H 778 ligands_prepared 0.0000
32 H32 218.4387 152.7629 177.9267 H 778 ligands_prepared 0.0000
33 H33 218.6955 154.5920 179.5352 H 778 ligands_prepared 0.0000
34 H34 219.0807 155.1001 177.8735 H 778 ligands_prepared 0.0000
35 H35 221.2577 155.6598 178.5242 H 778 ligands_prepared 0.0000
36 H36 220.8254 155.2775 180.1846 H 778 ligands_prepared 0.0000
37 H37 220.3783 151.6345 176.9548 H 778 ligands_prepared 0.0000
38 H38 220.9590 153.5889 175.2471 H 778 ligands_prepared 0.0000
39 H39 219.7860 154.5641 176.1094 H 778 ligands_prepared 0.0000
40 H40 220.2703 151.6846 173.8479 H 778 ligands_prepared 0.0000
41 H41 218.3865 150.6230 172.5981 H 778 ligands_prepared 0.0000
42 H42 216.0116 151.2146 173.2332 H 778 ligands_prepared 0.0000
43 H43 217.3139 153.7708 176.2440 H 778 ligands_prepared 0.0000
44 H44 223.2959 154.4184 175.4259 H 778 ligands_prepared 0.0000
45 H45 224.5055 156.6656 175.7158 H 778 ligands_prepared 0.0000
@<TRIPOS>BOND
      1     1     2    2
      2     2     3   am
      3     2    19    1
      4     3     4    1
      5     3    25    1
      6     4     5    1
      7     4    11    1
      8     4    26    1
      9     5     6    1
     10     5    10    1
     11     5    27    1
     12     6     7    1
     13     6    28    1
     14     6    29    1
     15     7     8    1
     16     7    30    1
     17     7    31    1
     18     8     9    1
     19     8    11    1
     20     8    32    1
     21     9    10    1
     22     9    33    1
     23     9    34    1
     24    10    35    1
     25    10    36    1
     26    11    12    1
     27    11    37    1
     28    12    13    1
     29    12    38    1
     30    12    39    1
     31    13    14   ar
     32    13    18   ar
     33    14    15   ar
     34    14    40    1
     35    15    16   ar
     36    15    41    1
     37    16    17   ar
     38    16    42    1
     39    17    18   ar
     40    18    43    1
     41    19    20    2
     42    19    24    1
     43    20    21    1
     44    20    44    1
     45    21    22    2
     46    21    45    1
     47    22    23    1
     48    22    24    1
@<TRIPOS>MOLECULE
CHEMBL2179874_LIG
45 48 1 0 0
SMALL
USER_CHARGES

@<TRIPOS>ATOM
1 O1 224.8532 151.2475 177.0621 O.2 778 ligands_prepared 0.0000
2 C2 224.0933 152.1986 177.1988 C.2 778 ligands_prepared 0.0000
3 N3 222.7762 152.0132 177.5254 N.am 778 ligands_prepared 0.0000
4 C4 221.8839 153.1552 177.7246 C.3 778 ligands_prepared 0.0000
5 C5 221.7559 153.5188 179.2283 C.3 778 ligands_prepared 0.0000
6 C6 221.0386 152.3939 179.9848 C.3 778 ligands_prepared 0.0000
7 C7 219.6219 152.2134 179.4191 C.3 778 ligands_prepared 0.0000
8 N8 219.4195 153.1258 178.2209 N.4 778 ligands_prepared 1.0000
9 C9 219.5547 154.5712 178.6616 C.3 778 ligands_prepared 0.0000
10 C10 220.9184 154.7994 179.3297 C.3 778 ligands_prepared 0.0000
11 C11 220.4725 152.7793 177.1723 C.3 778 ligands_prepared 0.0000
12 C12 220.1769 153.4914 175.8495 C.3 778 ligands_prepared 0.0000
13 C13 219.0340 152.8603 175.1267 C.ar 778 ligands_prepared 0.0000
14 C14 217.7124 153.1007 175.5068 C.ar 778 ligands_prepared 0.0000
15 C15 216.6791 152.4928 174.7987 C.ar 778 ligands_prepared 0.0000
16 C16 216.9986 151.6619 173.7196 C.ar 778 ligands_prepared 0.0000
17 N17 218.2730 151.4347 173.3377 N.ar 778 ligands_prepared 0.0000
18 C18 219.2686 152.0235 174.0245 C.ar 778 ligands_prepared 0.0000
19 C19 224.5139 153.5953 177.0553 C.2 778 ligands_prepared 0.0000
20 C20 224.0492 154.5020 176.1395 C.2 778 ligands_prepared 0.0000
21 C21 224.6600 155.7924 176.2650 C.2 778 ligands_prepared 0.0000
22 C22 225.5748 155.8232 177.2773 C.2 778 ligands_prepared 0.0000
23 I23 226.7471 157.4125 177.8863 I 778 ligands_prepared 0.0000
24 S24 225.7034 154.3085 178.1006 S.3 778 ligands_prepared 0.0000
25 H25 222.4180 151.0880 177.7656 H 778 ligands_prepared 0.0000
26 H26 222.2996 154.0448 177.1694 H 778 ligands_prepared 0.0000
27 H27 222.7735 153.6842 179.6557 H 778 ligands_prepared 0.0000
28 H28 220.9959 152.6289 181.0683 H 778 ligands_prepared 0.0000
29 H29 221.6108 151.4463 179.9247 H 778 ligands_prepared 0.0000
30 H30 218.8438 152.4511 180.1796 H 778 ligands_prepared 0.0000
31 H31 219.4356 151.1608 179.1057 H 778 ligands_prepared 0.0000
32 H32 218.4635 152.9688 177.8093 H 778 ligands_prepared 0.0000
33 H33 218.7155 154.8078 179.3560 H 778 ligands_prepared 0.0000
34 H34 219.4186 155.2354 177.7783 H 778 ligands_prepared 0.0000
35 H35 221.4425 155.6588 178.8657 H 778 ligands_prepared 0.0000
36 H36 220.7874 155.0847 180.3944 H 778 ligands_prepared 0.0000
37 H37 220.4053 151.6651 177.0101 H 778 ligands_prepared 0.0000
38 H38 221.0968 153.4627 175.2091 H 778 ligands_prepared 0.0000
39 H39 220.0128 154.5828 176.0039 H 778 ligands_prepared 0.0000
40 H40 217.4872 153.7637 176.3461 H 778 ligands_prepared 0.0000
41 H41 215.6373 152.6616 175.0776 H 778 ligands_prepared 0.0000
42 H42 216.2198 151.1557 173.1310 H 778 ligands_prepared 0.0000
43 H43 220.2894 151.8158 173.6724 H 778 ligands_prepared 0.0000
44 H44 223.2894 154.2996 175.3888 H 778 ligands_prepared 0.0000
45 H45 224.3967 156.6142 175.6063 H 778 ligands_prepared 0.0000
@<TRIPOS>BOND
      1     1     2    2
      2     2     3   am
      3     2    19    1
      4     3     4    1
      5     3    25    1
      6     4     5    1
      7     4    11    1
      8     4    26    1
      9     5     6    1
     10     5    10    1
     11     5    27    1
     12     6     7    1
     13     6    28    1
     14     6    29    1
     15     7     8    1
     16     7    30    1
     17     7    31    1
     18     8     9    1
     19     8    11    1
     20     8    32    1
     21     9    10    1
     22     9    33    1
     23     9    34    1
     24    10    35    1
     25    10    36    1
     26    11    12    1
     27    11    37    1
     28    12    13    1
     29    12    38    1
     30    12    39    1
     31    13    14   ar
     32    13    18   ar
     33    14    15   ar
     34    14    40    1
     35    15    16   ar
     36    15    41    1
     37    16    17   ar
     38    16    42    1
     39    17    18   ar
     40    18    43    1
     41    19    20    2
     42    19    24    1
     43    20    21    1
     44    20    44    1
     45    21    22    2
     46    21    45    1
     47    22    23    1
     48    22    24    1
@<TRIPOS>MOLECULE
CHEMBL2179875_LIG
55 59 1 0 0
SMALL
USER_CHARGES

@<TRIPOS>ATOM
1 O1 224.7161 151.2541 176.9090 O.2 778 ligands_prepared 0.0000
2 C2 223.9839 152.2194 177.0897 C.2 778 ligands_prepared 0.0000
3 N3 222.6479 152.0628 177.3558 N.am 778 ligands_prepared 0.0000
4 C4 221.7689 153.2016 177.6040 C.3 778 ligands_prepared 0.0000
5 C5 221.7315 153.5573 179.1145 C.3 778 ligands_prepared 0.0000
6 C6 220.8825 154.8255 179.2694 C.3 778 ligands_prepared 0.0000
7 C7 219.4673 154.5610 178.7347 C.3 778 ligands_prepared 0.0000
8 N8 219.3400 153.1236 178.2670 N.4 778 ligands_prepared 1.0000
9 C9 219.6465 152.1961 179.4301 C.3 778 ligands_prepared 0.0000
10 C10 221.0850 152.4205 179.9163 C.3 778 ligands_prepared 0.0000
11 C11 220.3256 152.8256 177.1392 C.3 778 ligands_prepared 0.0000
12 C12 219.9362 153.5732 175.8610 C.3 778 ligands_prepared 0.0000
13 C13 218.8582 152.8684 175.1087 C.ar 778 ligands_prepared 0.0000
14 C14 219.1644 151.9508 174.1019 C.ar 778 ligands_prepared 0.0000
15 C15 218.1283 151.3203 173.4168 C.ar 778 ligands_prepared 0.0000
16 C16 216.8089 151.6260 173.7641 C.ar 778 ligands_prepared 0.0000
17 N17 216.5038 152.4950 174.7491 N.ar 778 ligands_prepared 0.0000
18 C18 217.5070 153.0998 175.4111 C.ar 778 ligands_prepared 0.0000
19 C19 224.4353 153.6123 177.0404 C.2 778 ligands_prepared 0.0000
20 C20 224.1320 154.5401 176.0820 C.2 778 ligands_prepared 0.0000
21 C21 224.8000 155.7919 176.2864 C.2 778 ligands_prepared 0.0000
22 C22 225.6036 155.7961 177.3910 C.2 778 ligands_prepared 0.0000
23 C23 226.4894 156.8458 177.8543 C.ar 778 ligands_prepared 0.0000
24 C24 227.2044 156.6460 179.0400 C.ar 778 ligands_prepared 0.0000
25 C25 228.0492 157.6442 179.5151 C.ar 778 ligands_prepared 0.0000
26 C26 228.1889 158.8359 178.8065 C.ar 778 ligands_prepared 0.0000
27 C27 227.4825 159.0306 177.6208 C.ar 778 ligands_prepared 0.0000
28 C28 226.6329 158.0370 177.1402 C.ar 778 ligands_prepared 0.0000
29 S29 225.5148 154.2650 178.2344 S.3 778 ligands_prepared 0.0000
30 H30 222.2453 151.1316 177.4774 H 778 ligands_prepared 0.0000
31 H31 222.1421 154.0970 177.0296 H 778 ligands_prepared 0.0000
32 H32 222.7703 153.7394 179.4798 H 778 ligands_prepared 0.0000
33 H33 220.8440 155.1325 180.3348 H 778 ligands_prepared 0.0000
34 H34 221.3454 155.6822 178.7404 H 778 ligands_prepared 0.0000
35 H35 219.2107 155.2435 177.8940 H 778 ligands_prepared 0.0000
36 H36 218.6970 154.7439 179.5229 H 778 ligands_prepared 0.0000
37 H37 218.3620 152.9504 177.9172 H 778 ligands_prepared 0.0000
38 H38 219.4800 151.1428 179.1073 H 778 ligands_prepared 0.0000
39 H39 218.9060 152.3889 180.2399 H 778 ligands_prepared 0.0000
40 H40 221.6790 151.4880 179.8366 H 778 ligands_prepared 0.0000
41 H41 221.0930 152.6632 180.9995 H 778 ligands_prepared 0.0000
42 H42 220.2626 151.7165 176.9456 H 778 ligands_prepared 0.0000
43 H43 219.6565 154.6297 176.0798 H 778 ligands_prepared 0.0000
44 H44 220.8449 153.6809 175.2139 H 778 ligands_prepared 0.0000
45 H45 220.2037 151.7207 173.8547 H 778 ligands_prepared 0.0000
46 H46 218.3394 150.6028 172.6234 H 778 ligands_prepared 0.0000
47 H47 215.9552 151.1643 173.2468 H 778 ligands_prepared 0.0000
48 H48 217.2076 153.7916 176.2125 H 778 ligands_prepared 0.0000
49 H49 223.4664 154.3732 175.2405 H 778 ligands_prepared 0.0000
50 H50 224.6786 156.6265 175.6053 H 778 ligands_prepared 0.0000
51 H51 227.0986 155.7068 179.5854 H 778 ligands_prepared 0.0000
52 H52 228.6014 157.4910 180.4437 H 778 ligands_prepared 0.0000
53 H53 228.8566 159.6148 179.1797 H 778 ligands_prepared 0.0000
54 H54 227.5952 159.9641 177.0670 H 778 ligands_prepared 0.0000
55 H55 226.0882 158.1862 176.2063 H 778 ligands_prepared 0.0000
@<TRIPOS>BOND
      1     1     2    2
      2     2     3   am
      3     2    19    1
      4     3     4    1
      5     3    30    1
      6     4     5    1
      7     4    11    1
      8     4    31    1
      9     5     6    1
     10     5    10    1
     11     5    32    1
     12     6     7    1
     13     6    33    1
     14     6    34    1
     15     7     8    1
     16     7    35    1
     17     7    36    1
     18     8     9    1
     19     8    11    1
     20     8    37    1
     21     9    10    1
     22     9    38    1
     23     9    39    1
     24    10    40    1
     25    10    41    1
     26    11    12    1
     27    11    42    1
     28    12    13    1
     29    12    43    1
     30    12    44    1
     31    13    14   ar
     32    13    18   ar
     33    14    15   ar
     34    14    45    1
     35    15    16   ar
     36    15    46    1
     37    16    17   ar
     38    16    47    1
     39    17    18   ar
     40    18    48    1
     41    19    20    2
     42    19    29    1
     43    20    21    1
     44    20    49    1
     45    21    22    2
     46    21    50    1
     47    22    23    1
     48    22    29    1
     49    23    24   ar
     50    23    28   ar
     51    24    25   ar
     52    24    51    1
     53    25    26   ar
     54    25    52    1
     55    26    27   ar
     56    26    53    1
     57    27    28   ar
     58    27    54    1
     59    28    55    1
@<TRIPOS>MOLECULE
CHEMBL2179876_LIG
55 59 1 0 0
SMALL
USER_CHARGES

@<TRIPOS>ATOM
1 O1 223.4709 152.0395 177.5335 O.2 778 ligands_prepared 0.0000
2 C2 222.9182 153.0786 177.1954 C.2 778 ligands_prepared 0.0000
3 N3 223.6565 154.1872 176.8572 N.am 778 ligands_prepared 0.0000
4 C4 225.1090 154.1035 176.7470 C.3 778 ligands_prepared 0.0000
5 C5 225.7719 153.7115 178.0928 C.3 778 ligands_prepared 0.0000
6 C6 225.7061 154.8801 179.0827 C.3 778 ligands_prepared 0.0000
7 C7 226.5367 156.0550 178.5451 C.3 778 ligands_prepared 0.0000
8 N8 226.9329 155.7898 177.1030 N.4 778 ligands_prepared 1.0000
9 C9 227.8756 154.6018 177.0673 C.3 778 ligands_prepared 0.0000
10 C10 227.2470 153.4007 177.7910 C.3 778 ligands_prepared 0.0000
11 C11 225.6666 155.4957 176.3062 C.3 778 ligands_prepared 0.0000
12 C12 225.9601 155.5563 174.8020 C.3 778 ligands_prepared 0.0000
13 C13 226.8889 156.6859 174.5038 C.ar 778 ligands_prepared 0.0000
14 C14 228.2148 156.4574 174.1321 C.ar 778 ligands_prepared 0.0000
15 C15 229.0423 157.5425 173.8555 C.ar 778 ligands_prepared 0.0000
16 C16 228.5133 158.8336 173.9536 C.ar 778 ligands_prepared 0.0000
17 N17 227.2343 159.0646 174.3114 N.ar 778 ligands_prepared 0.0000
18 C18 226.4385 158.0130 174.5844 C.ar 778 ligands_prepared 0.0000
19 C19 221.4662 153.2085 177.0828 C.2 778 ligands_prepared 0.0000
20 C20 220.7205 153.0118 175.9503 C.2 778 ligands_prepared 0.0000
21 C21 219.3112 153.1126 176.1912 C.2 778 ligands_prepared 0.0000
22 C22 218.3259 152.8874 175.1412 C.ar 778 ligands_prepared 0.0000
23 C23 218.6723 152.1353 174.0161 C.ar 778 ligands_prepared 0.0000
24 C24 217.7264 151.8929 173.0236 C.ar 778 ligands_prepared 0.0000
25 C25 216.4351 152.4004 173.1517 C.ar 778 ligands_prepared 0.0000
26 C26 216.0923 153.1615 174.2673 C.ar 778 ligands_prepared 0.0000
27 C27 217.0341 153.4075 175.2619 C.ar 778 ligands_prepared 0.0000
28 C28 219.0137 153.4061 177.4968 C.2 778 ligands_prepared 0.0000
29 S29 220.4484 153.5290 178.4467 S.3 778 ligands_prepared 0.0000
30 H30 223.2142 155.0790 176.6454 H 778 ligands_prepared 0.0000
31 H31 225.3756 153.3261 175.9723 H 778 ligands_prepared 0.0000
32 H32 225.2612 152.8161 178.5170 H 778 ligands_prepared 0.0000
33 H33 224.6571 155.1876 179.2651 H 778 ligands_prepared 0.0000
34 H34 226.0838 154.5658 180.0771 H 778 ligands_prepared 0.0000
35 H35 227.4646 156.2075 179.1429 H 778 ligands_prepared 0.0000
36 H36 225.9757 157.0155 178.5970 H 778 ligands_prepared 0.0000
37 H37 227.4141 156.6385 176.7036 H 778 ligands_prepared 0.0000
38 H38 228.1181 154.3601 176.0073 H 778 ligands_prepared 0.0000
39 H39 228.8391 154.9013 177.5395 H 778 ligands_prepared 0.0000
40 H40 227.7909 153.1800 178.7303 H 778 ligands_prepared 0.0000
41 H41 227.3445 152.4831 177.1779 H 778 ligands_prepared 0.0000
42 H42 224.9269 156.3080 176.5649 H 778 ligands_prepared 0.0000
43 H43 225.0197 155.6415 174.2113 H 778 ligands_prepared 0.0000
44 H44 226.4114 154.5936 174.4566 H 778 ligands_prepared 0.0000
45 H45 228.6014 155.4372 174.0576 H 778 ligands_prepared 0.0000
46 H46 230.0800 157.3866 173.5580 H 778 ligands_prepared 0.0000
47 H47 229.1222 159.7229 173.7375 H 778 ligands_prepared 0.0000
48 H48 225.4072 158.2488 174.8786 H 778 ligands_prepared 0.0000
49 H49 221.1212 152.7920 174.9688 H 778 ligands_prepared 0.0000
50 H50 219.6807 151.7323 173.9197 H 778 ligands_prepared 0.0000
51 H51 217.9986 151.3057 172.1453 H 778 ligands_prepared 0.0000
52 H52 215.6915 152.2007 172.3789 H 778 ligands_prepared 0.0000
53 H53 215.0828 153.5655 174.3634 H 778 ligands_prepared 0.0000
54 H54 216.7704 154.0059 176.1342 H 778 ligands_prepared 0.0000
55 H55 218.0281 153.5447 177.9198 H 778 ligands_prepared 0.0000
@<TRIPOS>BOND
      1     1     2    2
      2     2     3   am
      3     2    19    1
      4     3     4    1
      5     3    30    1
      6     4     5    1
      7     4    11    1
      8     4    31    1
      9     5     6    1
     10     5    10    1
     11     5    32    1
     12     6     7    1
     13     6    33    1
     14     6    34    1
     15     7     8    1
     16     7    35    1
     17     7    36    1
     18     8     9    1
     19     8    11    1
     20     8    37    1
     21     9    10    1
     22     9    38    1
     23     9    39    1
     24    10    40    1
     25    10    41    1
     26    11    12    1
     27    11    42    1
     28    12    13    1
     29    12    43    1
     30    12    44    1
     31    13    14   ar
     32    13    18   ar
     33    14    15   ar
     34    14    45    1
     35    15    16   ar
     36    15    46    1
     37    16    17   ar
     38    16    47    1
     39    17    18   ar
     40    18    48    1
     41    19    20    2
     42    19    29    1
     43    20    21    1
     44    20    49    1
     45    21    22    1
     46    21    28    2
     47    22    23   ar
     48    22    27   ar
     49    23    24   ar
     50    23    50    1
     51    24    25   ar
     52    24    51    1
     53    25    26   ar
     54    25    52    1
     55    26    27   ar
     56    26    53    1
     57    27    54    1
     58    28    29    1
     59    28    55    1
@<TRIPOS>MOLECULE
CHEMBL2179877_LIG
54 58 1 0 0
SMALL
USER_CHARGES

@<TRIPOS>ATOM
1 O1 224.6940 151.2145 177.0466 O.2 778 ligands_prepared 0.0000
2 C2 223.9556 152.1794 177.1923 C.2 778 ligands_prepared 0.0000
3 N3 222.6307 152.0283 177.5066 N.am 778 ligands_prepared 0.0000
4 C4 221.7492 153.1771 177.6915 C.3 778 ligands_prepared 0.0000
5 C5 221.6566 153.5814 179.1867 C.3 778 ligands_prepared 0.0000
6 C6 220.8073 154.8582 179.2632 C.3 778 ligands_prepared 0.0000
7 C7 219.4076 154.5798 178.6956 C.3 778 ligands_prepared 0.0000
8 N8 219.2954 153.1302 178.2636 N.4 778 ligands_prepared 1.0000
9 C9 219.5542 152.2392 179.4659 C.3 778 ligands_prepared 0.0000
10 C10 220.9734 152.4746 180.0011 C.3 778 ligands_prepared 0.0000
11 C11 220.3207 152.7983 177.1822 C.3 778 ligands_prepared 0.0000
12 C12 219.9887 153.5217 175.8738 C.3 778 ligands_prepared 0.0000
13 C13 218.8960 152.8492 175.1137 C.ar 778 ligands_prepared 0.0000
14 C14 219.1843 151.9442 174.0903 C.ar 778 ligands_prepared 0.0000
15 C15 218.1393 151.3252 173.4115 C.ar 778 ligands_prepared 0.0000
16 C16 216.8242 151.6294 173.7829 C.ar 778 ligands_prepared 0.0000
17 N17 216.5361 152.4933 174.7769 N.ar 778 ligands_prepared 0.0000
18 C18 217.5494 153.0890 175.4320 C.ar 778 ligands_prepared 0.0000
19 C19 224.4030 153.5703 177.0507 C.2 778 ligands_prepared 0.0000
20 C20 223.9671 154.4747 176.1206 C.2 778 ligands_prepared 0.0000
21 C21 224.6132 155.7448 176.2426 C.2 778 ligands_prepared 0.0000
22 C22 225.5293 155.7975 177.2632 C.2 778 ligands_prepared 0.0000
23 C23 226.3653 156.9280 177.6291 C.ar 778 ligands_prepared 0.0000
24 C24 226.3882 158.1278 176.8994 C.ar 778 ligands_prepared 0.0000
25 C25 227.2058 159.1702 177.3364 C.ar 778 ligands_prepared 0.0000
26 C26 227.9859 158.9983 178.4748 C.ar 778 ligands_prepared 0.0000
27 C27 227.9226 157.7696 179.1445 C.ar 778 ligands_prepared 0.0000
28 N28 227.1331 156.7603 178.7383 N.ar 778 ligands_prepared 0.0000
29 S29 225.5883 154.2635 178.1018 S.3 778 ligands_prepared 0.0000
30 H30 222.2248 151.1029 177.6545 H 778 ligands_prepared 0.0000
31 H31 222.1504 154.0542 177.1066 H 778 ligands_prepared 0.0000
32 H32 222.6791 153.7741 179.5865 H 778 ligands_prepared 0.0000
33 H33 220.7363 155.2101 180.3127 H 778 ligands_prepared 0.0000
34 H34 221.2925 155.6911 178.7143 H 778 ligands_prepared 0.0000
35 H35 219.1739 155.2390 177.8305 H 778 ligands_prepared 0.0000
36 H36 218.6160 154.7812 179.4580 H 778 ligands_prepared 0.0000
37 H37 218.3311 152.9478 177.8829 H 778 ligands_prepared 0.0000
38 H38 218.7845 152.4625 180.2424 H 778 ligands_prepared 0.0000
39 H39 219.3933 151.1766 179.1710 H 778 ligands_prepared 0.0000
40 H40 221.5654 151.5391 179.9786 H 778 ligands_prepared 0.0000
41 H41 220.9384 152.7560 181.0745 H 778 ligands_prepared 0.0000
42 H42 220.2550 151.6851 177.0132 H 778 ligands_prepared 0.0000
43 H43 220.9161 153.5695 175.2467 H 778 ligands_prepared 0.0000
44 H44 219.7511 154.5962 176.0573 H 778 ligands_prepared 0.0000
45 H45 220.2218 151.7148 173.8257 H 778 ligands_prepared 0.0000
46 H46 218.3369 150.6155 172.6068 H 778 ligands_prepared 0.0000
47 H47 215.9627 151.1681 173.2787 H 778 ligands_prepared 0.0000
48 H48 217.2650 153.7768 176.2409 H 778 ligands_prepared 0.0000
49 H49 223.2174 154.2746 175.3605 H 778 ligands_prepared 0.0000
50 H50 224.3902 156.5718 175.5740 H 778 ligands_prepared 0.0000
51 H51 225.7869 158.2659 176.0018 H 778 ligands_prepared 0.0000
52 H52 227.2301 160.1138 176.7826 H 778 ligands_prepared 0.0000
53 H53 228.6319 159.7952 178.8425 H 778 ligands_prepared 0.0000
54 H54 228.5232 157.5745 180.0455 H 778 ligands_prepared 0.0000
@<TRIPOS>BOND
      1     1     2    2
      2     2     3   am
      3     2    19    1
      4     3     4    1
      5     3    30    1
      6     4     5    1
      7     4    11    1
      8     4    31    1
      9     5     6    1
     10     5    10    1
     11     5    32    1
     12     6     7    1
     13     6    33    1
     14     6    34    1
     15     7     8    1
     16     7    35    1
     17     7    36    1
     18     8     9    1
     19     8    11    1
     20     8    37    1
     21     9    10    1
     22     9    38    1
     23     9    39    1
     24    10    40    1
     25    10    41    1
     26    11    12    1
     27    11    42    1
     28    12    13    1
     29    12    43    1
     30    12    44    1
     31    13    14   ar
     32    13    18   ar
     33    14    15   ar
     34    14    45    1
     35    15    16   ar
     36    15    46    1
     37    16    17   ar
     38    16    47    1
     39    17    18   ar
     40    18    48    1
     41    19    20    2
     42    19    29    1
     43    20    21    1
     44    20    49    1
     45    21    22    2
     46    21    50    1
     47    22    23    1
     48    22    29    1
     49    23    24   ar
     50    23    28   ar
     51    24    25   ar
     52    24    51    1
     53    25    26   ar
     54    25    52    1
     55    26    27   ar
     56    26    53    1
     57    27    28   ar
     58    27    54    1
@<TRIPOS>MOLECULE
CHEMBL2179878_LIG
52 56 1 0 0
SMALL
USER_CHARGES

@<TRIPOS>ATOM
1 O1 224.7952 151.2418 176.9952 O.2 778 ligands_prepared 0.0000
2 C2 224.0367 152.1900 177.1663 C.2 778 ligands_prepared 0.0000
3 N3 222.7241 151.9842 177.5067 N.am 778 ligands_prepared 0.0000
4 C4 221.8379 153.1170 177.7637 C.3 778 ligands_prepared 0.0000
5 C5 221.7161 153.4026 179.2859 C.3 778 ligands_prepared 0.0000
6 C6 220.9603 154.7288 179.4363 C.3 778 ligands_prepared 0.0000
7 C7 219.6104 154.6219 178.7105 C.3 778 ligands_prepared 0.0000
8 N8 219.3754 153.1992 178.2375 N.4 778 ligands_prepared 1.0000
9 C9 219.4899 152.2562 179.4228 C.3 778 ligands_prepared 0.0000
10 C10 220.9227 152.2854 179.9751 C.3 778 ligands_prepared 0.0000
11 C11 220.4193 152.7881 177.2022 C.3 778 ligands_prepared 0.0000
12 C12 220.1588 153.4861 175.8640 C.3 778 ligands_prepared 0.0000
13 C13 219.0265 152.8424 175.1354 C.ar 778 ligands_prepared 0.0000
14 C14 217.7020 153.0986 175.5019 C.ar 778 ligands_prepared 0.0000
15 C15 216.6708 152.4930 174.7905 C.ar 778 ligands_prepared 0.0000
16 C16 216.9961 151.6430 173.7261 C.ar 778 ligands_prepared 0.0000
17 N17 218.2706 151.3794 173.3766 N.ar 778 ligands_prepared 0.0000
18 C18 219.2663 151.9635 174.0703 C.ar 778 ligands_prepared 0.0000
19 C19 224.4548 153.5860 177.0407 C.2 778 ligands_prepared 0.0000
20 C20 223.9965 154.5120 176.1414 C.2 778 ligands_prepared 0.0000
21 C21 224.6318 155.7863 176.2811 C.2 778 ligands_prepared 0.0000
22 C22 225.5702 155.8213 177.2797 C.2 778 ligands_prepared 0.0000
23 C23 226.3962 156.9235 177.6521 C.2 778 ligands_prepared 0.0000
24 C24 227.2383 157.0193 178.7251 C.2 778 ligands_prepared 0.0000
25 C25 227.8931 158.2943 178.8259 C.2 778 ligands_prepared 0.0000
26 C26 227.5528 159.1592 177.8318 C.2 778 ligands_prepared 0.0000
27 S27 226.4037 158.4313 176.7433 S.3 778 ligands_prepared 0.0000
28 S28 225.6534 154.2721 178.0973 S.3 778 ligands_prepared 0.0000
29 H29 222.3664 151.0503 177.7126 H 778 ligands_prepared 0.0000
30 H30 222.2537 154.0328 177.2526 H 778 ligands_prepared 0.0000
31 H31 222.7341 153.4803 179.7333 H 778 ligands_prepared 0.0000
32 H32 220.8117 154.9694 180.5085 H 778 ligands_prepared 0.0000
33 H33 221.5553 155.5733 179.0328 H 778 ligands_prepared 0.0000
34 H34 219.5626 155.3106 177.8369 H 778 ligands_prepared 0.0000
35 H35 218.7678 154.9129 179.3820 H 778 ligands_prepared 0.0000
36 H36 218.4207 153.1277 177.8053 H 778 ligands_prepared 0.0000
37 H37 219.1942 151.2306 179.1020 H 778 ligands_prepared 0.0000
38 H38 218.7478 152.5660 180.1947 H 778 ligands_prepared 0.0000
39 H39 221.4191 151.3040 179.8414 H 778 ligands_prepared 0.0000
40 H40 220.9074 152.4424 181.0743 H 778 ligands_prepared 0.0000
41 H41 220.3095 151.6740 177.0569 H 778 ligands_prepared 0.0000
42 H42 219.9987 154.5790 175.9955 H 778 ligands_prepared 0.0000
43 H43 221.0917 153.4353 175.2433 H 778 ligands_prepared 0.0000
44 H44 217.4787 153.7651 176.3416 H 778 ligands_prepared 0.0000
45 H45 215.6277 152.6741 175.0531 H 778 ligands_prepared 0.0000
46 H46 216.2183 151.1472 173.1269 H 778 ligands_prepared 0.0000
47 H47 220.2870 151.7029 173.7565 H 778 ligands_prepared 0.0000
48 H48 223.2306 154.3302 175.3918 H 778 ligands_prepared 0.0000
49 H49 224.3859 156.6237 175.6370 H 778 ligands_prepared 0.0000
50 H50 227.4200 156.2268 179.4428 H 778 ligands_prepared 0.0000
51 H51 228.5834 158.5112 179.6321 H 778 ligands_prepared 0.0000
52 H52 227.9059 160.1691 177.6840 H 778 ligands_prepared 0.0000
@<TRIPOS>BOND
      1     1     2    2
      2     2     3   am
      3     2    19    1
      4     3     4    1
      5     3    29    1
      6     4     5    1
      7     4    11    1
      8     4    30    1
      9     5     6    1
     10     5    10    1
     11     5    31    1
     12     6     7    1
     13     6    32    1
     14     6    33    1
     15     7     8    1
     16     7    34    1
     17     7    35    1
     18     8     9    1
     19     8    11    1
     20     8    36    1
     21     9    10    1
     22     9    37    1
     23     9    38    1
     24    10    39    1
     25    10    40    1
     26    11    12    1
     27    11    41    1
     28    12    13    1
     29    12    42    1
     30    12    43    1
     31    13    14   ar
     32    13    18   ar
     33    14    15   ar
     34    14    44    1
     35    15    16   ar
     36    15    45    1
     37    16    17   ar
     38    16    46    1
     39    17    18   ar
     40    18    47    1
     41    19    20    2
     42    19    28    1
     43    20    21    1
     44    20    48    1
     45    21    22    2
     46    21    49    1
     47    22    23    1
     48    22    28    1
     49    23    24    2
     50    23    27    1
     51    24    25    1
     52    24    50    1
     53    25    26    2
     54    25    51    1
     55    26    27    1
     56    26    52    1
@<TRIPOS>MOLECULE
CHEMBL2179879_LIG
51 55 1 0 0
SMALL
USER_CHARGES

@<TRIPOS>ATOM
1 O1 224.7886 151.1370 176.9190 O.2 778 ligands_prepared 0.0000
2 C2 224.0528 152.0972 177.1102 C.2 778 ligands_prepared 0.0000
3 N3 222.7122 151.9392 177.3312 N.am 778 ligands_prepared 0.0000
4 C4 221.8635 153.0981 177.6010 C.3 778 ligands_prepared 0.0000
5 C5 221.8193 153.4162 179.1199 C.3 778 ligands_prepared 0.0000
6 C6 221.0764 152.3020 179.8676 C.3 778 ligands_prepared 0.0000
7 C7 219.6215 152.2378 179.3813 C.3 778 ligands_prepared 0.0000
8 N8 219.4200 153.1779 178.2067 N.4 778 ligands_prepared 1.0000
9 C9 219.6557 154.6022 178.6666 C.3 778 ligands_prepared 0.0000
10 C10 221.0539 154.7369 179.2857 C.3 778 ligands_prepared 0.0000
11 C11 220.4095 152.8034 177.1102 C.3 778 ligands_prepared 0.0000
12 C12 220.0820 153.5625 175.8155 C.3 778 ligands_prepared 0.0000
13 C13 218.9728 152.8436 175.1226 C.ar 778 ligands_prepared 0.0000
14 C14 219.2493 151.9376 174.0963 C.ar 778 ligands_prepared 0.0000
15 C15 218.1935 151.3284 173.4255 C.ar 778 ligands_prepared 0.0000
16 C16 216.8855 151.6541 173.7994 C.ar 778 ligands_prepared 0.0000
17 N17 216.6101 152.5072 174.8069 N.ar 778 ligands_prepared 0.0000
18 C18 217.6336 153.0923 175.4577 C.ar 778 ligands_prepared 0.0000
19 C19 224.5802 153.4682 177.0836 C.2 778 ligands_prepared 0.0000
20 C20 224.3280 154.5073 176.2361 C.2 778 ligands_prepared 0.0000
21 C21 225.1204 155.6154 176.7137 C.ar 778 ligands_prepared 0.0000
22 C22 225.3122 156.9346 176.3075 C.ar 778 ligands_prepared 0.0000
23 C23 226.1921 157.6863 177.0659 C.ar 778 ligands_prepared 0.0000
24 Cl24 226.4604 159.3187 176.6031 Cl 778 ligands_prepared 0.0000
25 C25 226.8834 157.2060 178.1864 C.ar 778 ligands_prepared 0.0000
26 C26 226.7002 155.8928 178.6034 C.ar 778 ligands_prepared 0.0000
27 C27 225.8145 155.1274 177.8527 C.ar 778 ligands_prepared 0.0000
28 O28 225.4886 153.8084 178.0927 O.3 778 ligands_prepared 0.0000
29 H29 222.2769 151.0180 177.3620 H 778 ligands_prepared 0.0000
30 H30 222.2763 153.9947 177.0542 H 778 ligands_prepared 0.0000
31 H31 222.8570 153.5182 179.5145 H 778 ligands_prepared 0.0000
32 H32 221.1118 152.4803 180.9610 H 778 ligands_prepared 0.0000
33 H33 221.5822 151.3248 179.7318 H 778 ligands_prepared 0.0000
34 H34 218.9094 152.5207 180.1896 H 778 ligands_prepared 0.0000
35 H35 219.3373 151.2058 179.0707 H 778 ligands_prepared 0.0000
36 H36 218.4346 153.0804 177.8402 H 778 ligands_prepared 0.0000
37 H37 218.8561 154.8781 179.3931 H 778 ligands_prepared 0.0000
38 H38 219.5229 155.2881 177.7986 H 778 ligands_prepared 0.0000
39 H39 220.9805 155.0035 180.3596 H 778 ligands_prepared 0.0000
40 H40 221.6063 155.5786 178.8194 H 778 ligands_prepared 0.0000
41 H41 220.2809 151.6979 176.9287 H 778 ligands_prepared 0.0000
42 H42 220.9768 153.6656 175.1614 H 778 ligands_prepared 0.0000
43 H43 219.7865 154.6172 176.0320 H 778 ligands_prepared 0.0000
44 H44 220.2836 151.7144 173.8220 H 778 ligands_prepared 0.0000
45 H45 218.3812 150.6161 172.6220 H 778 ligands_prepared 0.0000
46 H46 216.0173 151.2220 173.2820 H 778 ligands_prepared 0.0000
47 H47 217.3627 153.7845 176.2662 H 778 ligands_prepared 0.0000
48 H48 223.6714 154.5263 175.3830 H 778 ligands_prepared 0.0000
49 H49 224.7895 157.3332 175.4346 H 778 ligands_prepared 0.0000
50 H50 227.5692 157.8577 178.7393 H 778 ligands_prepared 0.0000
51 H51 227.2232 155.4879 179.4704 H 778 ligands_prepared 0.0000
@<TRIPOS>BOND
      1     1     2    2
      2     2     3   am
      3     2    19    1
      4     3     4    1
      5     3    29    1
      6     4     5    1
      7     4    11    1
      8     4    30    1
      9     5     6    1
     10     5    10    1
     11     5    31    1
     12     6     7    1
     13     6    32    1
     14     6    33    1
     15     7     8    1
     16     7    34    1
     17     7    35    1
     18     8     9    1
     19     8    11    1
     20     8    36    1
     21     9    10    1
     22     9    37    1
     23     9    38    1
     24    10    39    1
     25    10    40    1
     26    11    12    1
     27    11    41    1
     28    12    13    1
     29    12    42    1
     30    12    43    1
     31    13    14   ar
     32    13    18   ar
     33    14    15   ar
     34    14    44    1
     35    15    16   ar
     36    15    45    1
     37    16    17   ar
     38    16    46    1
     39    17    18   ar
     40    18    47    1
     41    19    20    2
     42    19    28    1
     43    20    21    1
     44    20    48    1
     45    21    22   ar
     46    21    27   ar
     47    22    23   ar
     48    22    49    1
     49    23    24    1
     50    23    25   ar
     51    25    26   ar
     52    25    50    1
     53    26    27   ar
     54    26    51    1
     55    27    28    1
@<TRIPOS>MOLECULE
CHEMBL2179880_LIG
51 55 1 0 0
SMALL
USER_CHARGES

@<TRIPOS>ATOM
1 O1 224.7053 151.0333 176.9076 O.2 778 ligands_prepared 0.0000
2 C2 224.0105 152.0111 177.1358 C.2 778 ligands_prepared 0.0000
3 N3 222.7027 151.9019 177.5228 N.am 778 ligands_prepared 0.0000
4 C4 221.8792 153.0914 177.7341 C.3 778 ligands_prepared 0.0000
5 C5 221.7490 153.4216 179.2448 C.3 778 ligands_prepared 0.0000
6 C6 220.8603 152.3850 179.9425 C.3 778 ligands_prepared 0.0000
7 C7 219.4358 152.4650 179.3725 C.3 778 ligands_prepared 0.0000
8 N8 219.4197 153.3604 178.1442 N.4 778 ligands_prepared 1.0000
9 C9 219.7644 154.7783 178.5568 C.3 778 ligands_prepared 0.0000
10 C10 221.0783 154.7988 179.3518 C.3 778 ligands_prepared 0.0000
11 C11 220.4506 152.8219 177.1595 C.3 778 ligands_prepared 0.0000
12 C12 220.2438 153.4435 175.7725 C.3 778 ligands_prepared 0.0000
13 C13 219.1013 152.7700 175.0875 C.ar 778 ligands_prepared 0.0000
14 C14 219.3129 151.8965 174.0177 C.ar 778 ligands_prepared 0.0000
15 C15 218.2173 151.3338 173.3694 C.ar 778 ligands_prepared 0.0000
16 C16 216.9332 151.6380 173.8350 C.ar 778 ligands_prepared 0.0000
17 N17 216.7201 152.4511 174.8893 N.ar 778 ligands_prepared 0.0000
18 C18 217.7811 153.0128 175.4985 C.ar 778 ligands_prepared 0.0000
19 C19 224.5276 153.3885 177.0507 C.2 778 ligands_prepared 0.0000
20 C20 224.3085 154.4257 176.1939 C.2 778 ligands_prepared 0.0000
21 C21 225.0879 155.5320 176.7005 C.ar 778 ligands_prepared 0.0000
22 C22 225.3005 156.8520 176.3045 C.ar 778 ligands_prepared 0.0000
23 C23 226.1666 157.6023 177.0832 C.ar 778 ligands_prepared 0.0000
24 Br24 226.4905 159.4094 176.5869 Br 778 ligands_prepared 0.0000
25 C25 226.8215 157.1070 178.2202 C.ar 778 ligands_prepared 0.0000
26 C26 226.6120 155.7973 178.6340 C.ar 778 ligands_prepared 0.0000
27 C27 225.7418 155.0409 177.8588 C.ar 778 ligands_prepared 0.0000
28 O28 225.3975 153.7248 178.0919 O.3 778 ligands_prepared 0.0000
29 H29 222.2679 150.9970 177.7049 H 778 ligands_prepared 0.0000
30 H30 222.3484 153.9695 177.2036 H 778 ligands_prepared 0.0000
31 H31 222.7609 153.4418 179.7167 H 778 ligands_prepared 0.0000
32 H32 220.8448 152.5634 181.0375 H 778 ligands_prepared 0.0000
33 H33 221.2757 151.3637 179.8347 H 778 ligands_prepared 0.0000
34 H34 218.7167 152.8712 180.1180 H 778 ligands_prepared 0.0000
35 H35 219.0500 151.4588 179.0895 H 778 ligands_prepared 0.0000
36 H36 218.4622 153.3413 177.7025 H 778 ligands_prepared 0.0000
37 H37 218.9202 155.1892 179.1568 H 778 ligands_prepared 0.0000
38 H38 219.8289 155.4152 177.6444 H 778 ligands_prepared 0.0000
39 H39 220.8888 155.0504 180.4155 H 778 ligands_prepared 0.0000
40 H40 221.7486 155.6007 178.9826 H 778 ligands_prepared 0.0000
41 H41 220.2724 151.7103 177.0842 H 778 ligands_prepared 0.0000
42 H42 221.1733 153.3918 175.1613 H 778 ligands_prepared 0.0000
43 H43 220.0365 154.5387 175.8618 H 778 ligands_prepared 0.0000
44 H44 220.3281 151.6578 173.6903 H 778 ligands_prepared 0.0000
45 H45 218.3554 150.6691 172.5158 H 778 ligands_prepared 0.0000
46 H46 216.0359 151.2210 173.3553 H 778 ligands_prepared 0.0000
47 H47 217.5562 153.6790 176.3431 H 778 ligands_prepared 0.0000
48 H48 223.6928 154.4530 175.3118 H 778 ligands_prepared 0.0000
49 H49 224.7965 157.2487 175.4203 H 778 ligands_prepared 0.0000
50 H50 227.5052 157.7436 178.7934 H 778 ligands_prepared 0.0000
51 H51 227.1047 155.3859 179.5152 H 778 ligands_prepared 0.0000
@<TRIPOS>BOND
      1     1     2    2
      2     2     3   am
      3     2    19    1
      4     3     4    1
      5     3    29    1
      6     4     5    1
      7     4    11    1
      8     4    30    1
      9     5     6    1
     10     5    10    1
     11     5    31    1
     12     6     7    1
     13     6    32    1
     14     6    33    1
     15     7     8    1
     16     7    34    1
     17     7    35    1
     18     8     9    1
     19     8    11    1
     20     8    36    1
     21     9    10    1
     22     9    37    1
     23     9    38    1
     24    10    39    1
     25    10    40    1
     26    11    12    1
     27    11    41    1
     28    12    13    1
     29    12    42    1
     30    12    43    1
     31    13    14   ar
     32    13    18   ar
     33    14    15   ar
     34    14    44    1
     35    15    16   ar
     36    15    45    1
     37    16    17   ar
     38    16    46    1
     39    17    18   ar
     40    18    47    1
     41    19    20    2
     42    19    28    1
     43    20    21    1
     44    20    48    1
     45    21    22   ar
     46    21    27   ar
     47    22    23   ar
     48    22    49    1
     49    23    24    1
     50    23    25   ar
     51    25    26   ar
     52    25    50    1
     53    26    27   ar
     54    26    51    1
     55    27    28    1
@<TRIPOS>MOLECULE
CHEMBL2179881_LIG
55 59 1 0 0
SMALL
USER_CHARGES

@<TRIPOS>ATOM
1 C1 227.4911 159.6997 177.2182 C.3 778 ligands_prepared 0.0000
2 O2 226.4610 158.9139 176.6301 O.3 778 ligands_prepared 0.0000
3 C3 226.2945 157.6439 177.0868 C.ar 778 ligands_prepared 0.0000
4 C4 226.9366 157.1222 178.2266 C.ar 778 ligands_prepared 0.0000
5 C5 226.6849 155.8180 178.6337 C.ar 778 ligands_prepared 0.0000
6 C6 225.7916 155.0940 177.8605 C.ar 778 ligands_prepared 0.0000
7 O7 225.4120 153.7831 178.0978 O.3 778 ligands_prepared 0.0000
8 C8 224.5080 153.4794 177.0788 C.2 778 ligands_prepared 0.0000
9 C9 223.9840 152.1044 177.1276 C.2 778 ligands_prepared 0.0000
10 O10 224.6927 151.1322 176.8989 O.2 778 ligands_prepared 0.0000
11 N11 222.6620 151.9818 177.4478 N.am 778 ligands_prepared 0.0000
12 C12 221.8289 153.1589 177.6814 C.3 778 ligands_prepared 0.0000
13 C13 221.7461 153.4617 179.2019 C.3 778 ligands_prepared 0.0000
14 C14 221.0693 154.8287 179.3599 C.3 778 ligands_prepared 0.0000
15 C15 219.7033 154.7971 178.6599 C.3 778 ligands_prepared 0.0000
16 N16 219.3800 153.3963 178.1811 N.4 778 ligands_prepared 1.0000
17 C17 219.4438 152.4693 179.3861 C.3 778 ligands_prepared 0.0000
18 C18 220.8880 152.4019 179.9078 C.3 778 ligands_prepared 0.0000
19 C19 220.3862 152.8786 177.1585 C.3 778 ligands_prepared 0.0000
20 C20 220.1065 153.3854 175.7410 C.3 778 ligands_prepared 0.0000
21 C21 218.9322 152.7999 175.0360 C.ar 778 ligands_prepared 0.0000
22 C22 217.6273 153.0913 175.4437 C.ar 778 ligands_prepared 0.0000
23 C23 216.5555 152.5382 174.7497 C.ar 778 ligands_prepared 0.0000
24 C24 216.8193 151.6851 173.6716 C.ar 778 ligands_prepared 0.0000
25 N25 218.0739 151.3624 173.2982 N.ar 778 ligands_prepared 0.0000
26 C26 219.1070 151.9000 173.9729 C.ar 778 ligands_prepared 0.0000
27 C27 224.3069 154.5217 176.2227 C.2 778 ligands_prepared 0.0000
28 C28 225.1404 155.6023 176.7084 C.ar 778 ligands_prepared 0.0000
29 C29 225.3945 156.9065 176.3076 C.ar 778 ligands_prepared 0.0000
30 H30 227.3004 159.8666 178.2838 H 778 ligands_prepared 0.0000
31 H31 227.4066 160.6452 176.6619 H 778 ligands_prepared 0.0000
32 H32 228.4752 159.2445 177.0572 H 778 ligands_prepared 0.0000
33 H33 227.6349 157.7360 178.7987 H 778 ligands_prepared 0.0000
34 H34 227.1652 155.3851 179.5117 H 778 ligands_prepared 0.0000
35 H35 222.1978 151.0713 177.4816 H 778 ligands_prepared 0.0000
36 H36 222.2772 154.0437 177.1511 H 778 ligands_prepared 0.0000
37 H37 222.7733 153.4846 179.6398 H 778 ligands_prepared 0.0000
38 H38 221.7013 155.6423 178.9513 H 778 ligands_prepared 0.0000
39 H39 220.9493 155.0720 180.4373 H 778 ligands_prepared 0.0000
40 H40 219.6742 155.5040 177.8064 H 778 ligands_prepared 0.0000
41 H41 218.8883 155.1288 179.3488 H 778 ligands_prepared 0.0000
42 H42 218.4127 153.3784 177.7630 H 778 ligands_prepared 0.0000
43 H43 218.7423 152.8476 180.1643 H 778 ligands_prepared 0.0000
44 H44 219.0611 151.4652 179.0936 H 778 ligands_prepared 0.0000
45 H45 220.9070 152.5646 181.0057 H 778 ligands_prepared 0.0000
46 H46 221.3089 151.3853 179.7709 H 778 ligands_prepared 0.0000
47 H47 220.2348 151.7518 177.1253 H 778 ligands_prepared 0.0000
48 H48 219.9851 154.5001 175.8092 H 778 ligands_prepared 0.0000
49 H49 221.0306 153.2724 175.1208 H 778 ligands_prepared 0.0000
50 H50 217.4472 153.7476 176.3017 H 778 ligands_prepared 0.0000
51 H51 215.5284 152.7654 175.0372 H 778 ligands_prepared 0.0000
52 H52 216.0064 151.2321 173.0855 H 778 ligands_prepared 0.0000
53 H53 220.1122 151.5856 173.6472 H 778 ligands_prepared 0.0000
54 H54 223.6772 154.5602 175.3513 H 778 ligands_prepared 0.0000
55 H55 224.9215 157.3428 175.4305 H 778 ligands_prepared 0.0000
@<TRIPOS>BOND
      1     1     2    1
      2     1    30    1
      3     1    31    1
      4     1    32    1
      5     2     3    1
      6     3     4   ar
      7     3    29   ar
      8     4     5   ar
      9     4    33    1
     10     5     6   ar
     11     5    34    1
     12     6     7    1
     13     6    28   ar
     14     7     8    1
     15     8     9    1
     16     8    27    2
     17     9    10    2
     18     9    11   am
     19    11    12    1
     20    11    35    1
     21    12    13    1
     22    12    19    1
     23    12    36    1
     24    13    14    1
     25    13    18    1
     26    13    37    1
     27    14    15    1
     28    14    38    1
     29    14    39    1
     30    15    16    1
     31    15    40    1
     32    15    41    1
     33    16    17    1
     34    16    19    1
     35    16    42    1
     36    17    18    1
     37    17    43    1
     38    17    44    1
     39    18    45    1
     40    18    46    1
     41    19    20    1
     42    19    47    1
     43    20    21    1
     44    20    48    1
     45    20    49    1
     46    21    22   ar
     47    21    26   ar
     48    22    23   ar
     49    22    50    1
     50    23    24   ar
     51    23    51    1
     52    24    25   ar
     53    24    52    1
     54    25    26   ar
     55    26    53    1
     56    27    28    1
     57    27    54    1
     58    28    29   ar
     59    29    55    1
@<TRIPOS>MOLECULE
CHEMBL2179882_LIG
55 59 1 0 0
SMALL
USER_CHARGES

@<TRIPOS>ATOM
1 C1 227.6499 156.3866 180.2747 C.3 778 ligands_prepared 0.0000
2 O2 227.2009 155.4849 179.2660 O.3 778 ligands_prepared 0.0000
3 C3 226.5457 156.0267 178.2111 C.ar 778 ligands_prepared 0.0000
4 C4 226.6387 157.3270 177.7327 C.ar 778 ligands_prepared 0.0000
5 C5 225.8880 157.7313 176.6132 C.ar 778 ligands_prepared 0.0000
6 C6 225.0405 156.8651 175.9404 C.ar 778 ligands_prepared 0.0000
7 C7 224.9281 155.5569 176.4162 C.ar 778 ligands_prepared 0.0000
8 C8 224.1637 154.3897 176.0303 C.2 778 ligands_prepared 0.0000
9 C9 224.4746 153.4197 176.9356 C.2 778 ligands_prepared 0.0000
10 C10 224.0082 152.0450 177.1836 C.2 778 ligands_prepared 0.0000
11 O11 224.7531 151.0778 177.0835 O.2 778 ligands_prepared 0.0000
12 N12 222.6979 151.9104 177.5619 N.am 778 ligands_prepared 0.0000
13 C13 221.8685 153.1046 177.7203 C.3 778 ligands_prepared 0.0000
14 C14 221.7390 153.5041 179.2147 C.3 778 ligands_prepared 0.0000
15 C15 220.8712 152.4873 179.9678 C.3 778 ligands_prepared 0.0000
16 C16 219.4548 152.4713 179.3747 C.3 778 ligands_prepared 0.0000
17 N17 219.4019 153.3509 178.1392 N.4 778 ligands_prepared 1.0000
18 C18 219.6982 154.7851 178.5341 C.3 778 ligands_prepared 0.0000
19 C19 221.0541 154.8778 179.2464 C.3 778 ligands_prepared 0.0000
20 C20 220.4403 152.8363 177.1493 C.3 778 ligands_prepared 0.0000
21 C21 220.2376 153.4872 175.7725 C.3 778 ligands_prepared 0.0000
22 C22 219.1100 152.7901 175.0898 C.ar 778 ligands_prepared 0.0000
23 C23 219.3588 151.9038 174.0353 C.ar 778 ligands_prepared 0.0000
24 C24 218.2846 151.3269 173.3671 C.ar 778 ligands_prepared 0.0000
25 C25 216.9865 151.6495 173.7768 C.ar 778 ligands_prepared 0.0000
26 N26 216.7388 152.4773 174.8145 N.ar 778 ligands_prepared 0.0000
27 C27 217.7796 153.0312 175.4612 C.ar 778 ligands_prepared 0.0000
28 O28 225.4045 153.8458 177.8861 O.3 778 ligands_prepared 0.0000
29 C29 225.6703 155.1584 177.5490 C.ar 778 ligands_prepared 0.0000
30 H30 228.3174 157.1486 179.8581 H 778 ligands_prepared 0.0000
31 H31 226.7996 156.8406 180.7957 H 778 ligands_prepared 0.0000
32 H32 228.2051 155.7158 180.9466 H 778 ligands_prepared 0.0000
33 H33 227.2924 158.0516 178.2176 H 778 ligands_prepared 0.0000
34 H34 225.9807 158.7652 176.2714 H 778 ligands_prepared 0.0000
35 H35 224.4732 157.1842 175.0670 H 778 ligands_prepared 0.0000
36 H36 223.4933 154.3375 175.1893 H 778 ligands_prepared 0.0000
37 H37 222.3039 151.0126 177.8458 H 778 ligands_prepared 0.0000
38 H38 222.3462 153.9607 177.1595 H 778 ligands_prepared 0.0000
39 H39 222.7506 153.5631 179.6831 H 778 ligands_prepared 0.0000
40 H40 221.3234 151.4752 179.9308 H 778 ligands_prepared 0.0000
41 H41 220.8329 152.7380 181.0482 H 778 ligands_prepared 0.0000
42 H42 219.1355 151.4403 179.0953 H 778 ligands_prepared 0.0000
43 H43 218.6998 152.8380 180.1053 H 778 ligands_prepared 0.0000
44 H44 218.4434 153.2977 177.7019 H 778 ligands_prepared 0.0000
45 H45 218.8706 155.1469 179.1887 H 778 ligands_prepared 0.0000
46 H46 219.6656 155.4247 177.6226 H 778 ligands_prepared 0.0000
47 H47 220.9246 155.2216 180.2917 H 778 ligands_prepared 0.0000
48 H48 221.6937 155.6491 178.7695 H 778 ligands_prepared 0.0000
49 H49 220.2690 151.7258 177.0556 H 778 ligands_prepared 0.0000
50 H50 220.0198 154.5764 175.8717 H 778 ligands_prepared 0.0000
51 H51 221.1703 153.4600 175.1637 H 778 ligands_prepared 0.0000
52 H52 220.3860 151.6758 173.7385 H 778 ligands_prepared 0.0000
53 H53 218.4495 150.6421 172.5357 H 778 ligands_prepared 0.0000
54 H54 216.1033 151.2412 173.2636 H 778 ligands_prepared 0.0000
55 H55 217.5310 153.6964 176.3012 H 778 ligands_prepared 0.0000
@<TRIPOS>BOND
      1     1     2    1
      2     1    30    1
      3     1    31    1
      4     1    32    1
      5     2     3    1
      6     3     4   ar
      7     3    29   ar
      8     4     5   ar
      9     4    33    1
     10     5     6   ar
     11     5    34    1
     12     6     7   ar
     13     6    35    1
     14     7     8    1
     15     7    29   ar
     16     8     9    2
     17     8    36    1
     18     9    10    1
     19     9    28    1
     20    10    11    2
     21    10    12   am
     22    12    13    1
     23    12    37    1
     24    13    14    1
     25    13    20    1
     26    13    38    1
     27    14    15    1
     28    14    19    1
     29    14    39    1
     30    15    16    1
     31    15    40    1
     32    15    41    1
     33    16    17    1
     34    16    42    1
     35    16    43    1
     36    17    18    1
     37    17    20    1
     38    17    44    1
     39    18    19    1
     40    18    45    1
     41    18    46    1
     42    19    47    1
     43    19    48    1
     44    20    21    1
     45    20    49    1
     46    21    22    1
     47    21    50    1
     48    21    51    1
     49    22    23   ar
     50    22    27   ar
     51    23    24   ar
     52    23    52    1
     53    24    25   ar
     54    24    53    1
     55    25    26   ar
     56    25    54    1
     57    26    27   ar
     58    27    55    1
     59    28    29    1
@<TRIPOS>MOLECULE
CHEMBL2179883_LIG
58 62 1 0 0
SMALL
USER_CHARGES

@<TRIPOS>ATOM
1 C1 218.4768 152.1982 173.7604 C.3 778 ligands_prepared 0.0000
2 C2 218.6573 152.9398 175.0731 C.3 778 ligands_prepared 0.0000
3 O3 219.8478 152.3444 175.6225 O.3 778 ligands_prepared 0.0000
4 C4 220.2761 152.8092 176.8146 C.ar 778 ligands_prepared 0.0000
5 C5 219.2773 153.2850 177.6672 C.ar 778 ligands_prepared 0.0000
6 C6 219.5946 153.7735 178.9423 C.ar 778 ligands_prepared 0.0000
7 C7 220.9025 153.8066 179.4097 C.ar 778 ligands_prepared 0.0000
8 C8 221.9098 153.3378 178.5690 C.ar 778 ligands_prepared 0.0000
9 C9 223.3453 153.2089 178.6839 C.2 778 ligands_prepared 0.0000
10 C10 223.7700 152.6580 177.5103 C.2 778 ligands_prepared 0.0000
11 C11 225.0886 152.2326 177.0156 C.2 778 ligands_prepared 0.0000
12 O12 225.4100 151.0588 176.8988 O.2 778 ligands_prepared 0.0000
13 N13 225.9664 153.2469 176.7328 N.am 778 ligands_prepared 0.0000
14 C14 225.5421 154.6392 176.8746 C.3 778 ligands_prepared 0.0000
15 C15 225.3454 155.2981 175.4878 C.3 778 ligands_prepared 0.0000
16 C16 224.8021 156.7116 175.7459 C.3 778 ligands_prepared 0.0000
17 C17 225.8852 157.5429 176.4451 C.3 778 ligands_prepared 0.0000
18 N18 227.0450 156.6625 176.8652 N.4 778 ligands_prepared 1.0000
19 C19 227.7100 156.1521 175.5963 C.3 778 ligands_prepared 0.0000
20 C20 226.6795 155.4044 174.7367 C.3 778 ligands_prepared 0.0000
21 C21 226.6103 155.4463 177.6777 C.3 778 ligands_prepared 0.0000
22 C22 226.1809 155.7930 179.1073 C.3 778 ligands_prepared 0.0000
23 C23 226.9627 156.8309 179.8360 C.ar 778 ligands_prepared 0.0000
24 C24 226.9477 158.1748 179.4576 C.ar 778 ligands_prepared 0.0000
25 C25 227.6931 159.1027 180.1801 C.ar 778 ligands_prepared 0.0000
26 C26 228.4146 158.6614 181.2948 C.ar 778 ligands_prepared 0.0000
27 N27 228.4004 157.3746 181.6978 N.ar 778 ligands_prepared 0.0000
28 C28 227.6921 156.4791 180.9859 C.ar 778 ligands_prepared 0.0000
29 O29 222.7266 152.4153 176.6188 O.3 778 ligands_prepared 0.0000
30 C30 221.5892 152.8411 177.2841 C.ar 778 ligands_prepared 0.0000
31 H31 218.3405 151.1196 173.9167 H 778 ligands_prepared 0.0000
32 H32 217.5886 152.5681 173.2279 H 778 ligands_prepared 0.0000
33 H33 219.3407 152.3281 173.0941 H 778 ligands_prepared 0.0000
34 H34 218.8335 154.0218 174.9348 H 778 ligands_prepared 0.0000
35 H35 217.8184 152.7823 175.7721 H 778 ligands_prepared 0.0000
36 H36 218.2396 153.2762 177.3284 H 778 ligands_prepared 0.0000
37 H37 218.7846 154.1378 179.5806 H 778 ligands_prepared 0.0000
38 H38 221.1434 154.1848 180.4019 H 778 ligands_prepared 0.0000
39 H39 223.9267 153.4961 179.5426 H 778 ligands_prepared 0.0000
40 H40 226.9374 153.0705 176.4821 H 778 ligands_prepared 0.0000
41 H41 224.5593 154.6469 177.4266 H 778 ligands_prepared 0.0000
42 H42 224.6135 154.7061 174.8873 H 778 ligands_prepared 0.0000
43 H43 223.8710 156.6781 176.3482 H 778 ligands_prepared 0.0000
44 H44 224.5015 157.1898 174.7915 H 778 ligands_prepared 0.0000
45 H45 226.2791 158.3356 175.7621 H 778 ligands_prepared 0.0000
46 H46 225.4905 158.0869 177.3279 H 778 ligands_prepared 0.0000
47 H47 227.7343 157.2310 177.4269 H 778 ligands_prepared 0.0000
48 H48 228.5704 155.4995 175.8705 H 778 ligands_prepared 0.0000
49 H49 228.1479 157.0198 175.0491 H 778 ligands_prepared 0.0000
50 H50 226.5222 155.9294 173.7707 H 778 ligands_prepared 0.0000
51 H51 227.0633 154.4057 174.4475 H 778 ligands_prepared 0.0000
52 H52 227.5438 154.8040 177.7764 H 778 ligands_prepared 0.0000
53 H53 225.1014 156.1130 179.0591 H 778 ligands_prepared 0.0000
54 H54 226.1321 154.8521 179.7084 H 778 ligands_prepared 0.0000
55 H55 226.3498 158.5063 178.6009 H 778 ligands_prepared 0.0000
56 H56 227.7120 160.1528 179.8871 H 778 ligands_prepared 0.0000
57 H57 229.0231 159.3509 181.8975 H 778 ligands_prepared 0.0000
58 H58 227.7056 155.4433 181.3583 H 778 ligands_prepared 0.0000
@<TRIPOS>BOND
      1     1     2    1
      2     1    31    1
      3     1    32    1
      4     1    33    1
      5     2     3    1
      6     2    34    1
      7     2    35    1
      8     3     4    1
      9     4     5   ar
     10     4    30   ar
     11     5     6   ar
     12     5    36    1
     13     6     7   ar
     14     6    37    1
     15     7     8   ar
     16     7    38    1
     17     8     9    1
     18     8    30   ar
     19     9    10    2
     20     9    39    1
     21    10    11    1
     22    10    29    1
     23    11    12    2
     24    11    13   am
     25    13    14    1
     26    13    40    1
     27    14    15    1
     28    14    21    1
     29    14    41    1
     30    15    16    1
     31    15    20    1
     32    15    42    1
     33    16    17    1
     34    16    43    1
     35    16    44    1
     36    17    18    1
     37    17    45    1
     38    17    46    1
     39    18    19    1
     40    18    21    1
     41    18    47    1
     42    19    20    1
     43    19    48    1
     44    19    49    1
     45    20    50    1
     46    20    51    1
     47    21    22    1
     48    21    52    1
     49    22    23    1
     50    22    53    1
     51    22    54    1
     52    23    24   ar
     53    23    28   ar
     54    24    25   ar
     55    24    55    1
     56    25    26   ar
     57    25    56    1
     58    26    27   ar
     59    26    57    1
     60    27    28   ar
     61    28    58    1
     62    29    30    1
@<TRIPOS>MOLECULE
CHEMBL2179959_LIG
32 34 1 0 0
SMALL
USER_CHARGES

@<TRIPOS>ATOM
1 C1 219.7155 153.0859 175.6864 C.2 778 ligands_prepared 0.0000
2 C2 218.6885 152.5978 174.9859 C.2 778 ligands_prepared 0.0000
3 C3 217.4867 151.9543 175.6135 C.3 778 ligands_prepared 0.0000
4 N4 216.5241 151.5105 174.5312 N.4 778 ligands_prepared 1.0000
5 C5 217.2276 150.5226 173.6214 C.3 778 ligands_prepared 0.0000
6 C6 218.4764 151.1673 172.9984 C.3 778 ligands_prepared 0.0000
7 C7 218.6047 152.6227 173.4858 C.3 778 ligands_prepared 0.0000
8 C8 217.3338 153.4020 173.0985 C.3 778 ligands_prepared 0.0000
9 C9 216.1024 152.7212 173.7201 C.3 778 ligands_prepared 0.0000
10 C10 219.7825 153.0436 177.1434 C.ar 778 ligands_prepared 0.0000
11 C11 218.6953 153.4520 177.9196 C.ar 778 ligands_prepared 0.0000
12 C12 218.7956 153.3960 179.3069 C.ar 778 ligands_prepared 0.0000
13 C13 219.9852 152.9283 179.8769 C.ar 778 ligands_prepared 0.0000
14 N14 221.0359 152.5250 179.1332 N.ar 778 ligands_prepared 0.0000
15 C15 220.9389 152.5808 177.7924 C.ar 778 ligands_prepared 0.0000
16 H16 220.5813 153.5437 175.1945 H 778 ligands_prepared 0.0000
17 H17 217.7723 151.0680 176.2332 H 778 ligands_prepared 0.0000
18 H18 216.9585 152.6557 176.3056 H 778 ligands_prepared 0.0000
19 H19 215.6788 151.0581 174.9691 H 778 ligands_prepared 0.0000
20 H20 217.4911 149.6168 174.2143 H 778 ligands_prepared 0.0000
21 H21 216.5106 150.1865 172.8382 H 778 ligands_prepared 0.0000
22 H22 219.3855 150.5924 173.2635 H 778 ligands_prepared 0.0000
23 H23 218.4213 151.1376 171.8921 H 778 ligands_prepared 0.0000
24 H24 219.5017 153.1019 173.0265 H 778 ligands_prepared 0.0000
25 H25 217.2366 153.4518 171.9957 H 778 ligands_prepared 0.0000
26 H26 217.4098 154.4544 173.4356 H 778 ligands_prepared 0.0000
27 H27 215.3819 152.3924 172.9372 H 778 ligands_prepared 0.0000
28 H28 215.5450 153.4197 174.3855 H 778 ligands_prepared 0.0000
29 H29 217.7820 153.8129 177.4399 H 778 ligands_prepared 0.0000
30 H30 217.9655 153.7100 179.9397 H 778 ligands_prepared 0.0000
31 H31 220.1153 152.8693 180.9664 H 778 ligands_prepared 0.0000
32 H32 221.8143 152.2431 177.2230 H 778 ligands_prepared 0.0000
@<TRIPOS>BOND
      1     1     2    2
      2     1    10    1
      3     1    16    1
      4     2     3    1
      5     2     7    1
      6     3     4    1
      7     3    17    1
      8     3    18    1
      9     4     5    1
     10     4     9    1
     11     4    19    1
     12     5     6    1
     13     5    20    1
     14     5    21    1
     15     6     7    1
     16     6    22    1
     17     6    23    1
     18     7     8    1
     19     7    24    1
     20     8     9    1
     21     8    25    1
     22     8    26    1
     23     9    27    1
     24     9    28    1
     25    10    11   ar
     26    10    15   ar
     27    11    12   ar
     28    11    29    1
     29    12    13   ar
     30    12    30    1
     31    13    14   ar
     32    13    31    1
     33    14    15   ar
     34    15    32    1
@<TRIPOS>MOLECULE
CHEMBL2179964_LIG
30 32 1 0 0
SMALL
USER_CHARGES

@<TRIPOS>ATOM
1 O1 220.8020 152.4994 176.4064 O.2 778 ligands_prepared 0.0000
2 C2 219.6979 153.0052 176.6149 C.2 778 ligands_prepared 0.0000
3 C3 219.4105 153.7454 177.8722 C.3 778 ligands_prepared 0.0000
4 C4 220.4821 153.7009 178.9519 C.3 778 ligands_prepared 0.0000
5 C5 219.2096 152.9282 179.1390 C.3 778 ligands_prepared 0.0000
6 N6 218.7376 152.8850 175.6508 N.am 778 ligands_prepared 0.0000
7 C7 219.1385 152.1290 174.3677 C.3 778 ligands_prepared 0.0000
8 C8 218.2942 152.4589 173.0516 C.3 778 ligands_prepared 0.0000
9 C9 216.9619 151.6401 172.6935 C.3 778 ligands_prepared 0.0000
10 N10 215.7853 152.2963 173.5719 N.4 778 ligands_prepared 1.0000
11 C11 216.7636 152.8546 174.5662 C.3 778 ligands_prepared 0.0000
12 C12 217.6049 153.7184 173.5141 C.3 778 ligands_prepared 0.0000
13 C13 217.2999 153.3999 175.8778 C.3 778 ligands_prepared 0.0000
14 H14 218.8293 154.6687 177.7636 H 778 ligands_prepared 0.0000
15 H15 221.4130 153.1699 178.7502 H 778 ligands_prepared 0.0000
16 H16 220.6750 154.6000 179.5363 H 778 ligands_prepared 0.0000
17 H17 219.2201 151.8401 179.0764 H 778 ligands_prepared 0.0000
18 H18 218.4647 153.2609 179.8624 H 778 ligands_prepared 0.0000
19 H19 220.1928 152.4176 174.1600 H 778 ligands_prepared 0.0000
20 H20 219.1107 151.0446 174.5888 H 778 ligands_prepared 0.0000
21 H21 218.9571 152.4936 172.1756 H 778 ligands_prepared 0.0000
22 H22 216.7014 151.7598 171.6298 H 778 ligands_prepared 0.0000
23 H23 217.0259 150.5706 172.9455 H 778 ligands_prepared 0.0000
24 H24 215.2397 152.9932 173.0408 H 778 ligands_prepared 0.0000
25 H25 215.1311 151.5916 173.9450 H 778 ligands_prepared 0.0000
26 H26 217.0900 151.7417 174.8850 H 778 ligands_prepared 0.0000
27 H27 216.9764 154.2540 172.7845 H 778 ligands_prepared 0.0000
28 H28 218.2494 154.5118 173.9221 H 778 ligands_prepared 0.0000
29 H29 217.2956 154.5020 175.9809 H 778 ligands_prepared 0.0000
30 H30 216.8674 152.9424 176.7903 H 778 ligands_prepared 0.0000
@<TRIPOS>BOND
      1     1     2    2
      2     2     3    1
      3     2     6   am
      4     3     4    1
      5     3     5    1
      6     3    14    1
      7     4     5    1
      8     4    15    1
      9     4    16    1
     10     5    17    1
     11     5    18    1
     12     7     6    1
     13     6    13    1
     14     7     8    1
     15     7    19    1
     16     7    20    1
     17     8     9    1
     18     8    12    1
     19     8    21    1
     20     9    10    1
     21     9    22    1
     22     9    23    1
     23    10    11    1
     24    10    24    1
     25    10    25    1
     26    11    12    1
     27    11    13    1
     28    11    26    1
     29    12    27    1
     30    12    28    1
     31    13    29    1
     32    13    30    1
@<TRIPOS>MOLECULE
CHEMBL2179965_LIG
30 32 1 0 0
SMALL
USER_CHARGES

@<TRIPOS>ATOM
1 O1 217.8933 153.3997 177.5972 O.2 778 ligands_prepared 0.0000
2 C2 218.6769 153.1962 176.6708 C.2 778 ligands_prepared 0.0000
3 C3 220.1463 153.2408 176.8807 C.3 778 ligands_prepared 0.0000
4 C4 220.7397 152.2010 177.8187 C.3 778 ligands_prepared 0.0000
5 C5 220.6338 153.6285 178.2688 C.3 778 ligands_prepared 0.0000
6 N6 218.1490 152.9732 175.4208 N.am 778 ligands_prepared 0.0000
7 C7 219.1000 152.8367 174.2934 C.3 778 ligands_prepared 0.0000
8 C8 218.4778 152.0854 173.1004 C.3 778 ligands_prepared 0.0000
9 C9 217.9753 150.6909 173.5214 C.3 778 ligands_prepared 0.0000
10 N10 216.5780 150.9288 174.0914 N.4 778 ligands_prepared 1.0000
11 C11 216.2820 152.4192 173.8720 C.3 778 ligands_prepared 0.0000
12 C12 217.1793 152.8002 172.6892 C.3 778 ligands_prepared 0.0000
13 C13 216.7325 153.2197 175.1105 C.3 778 ligands_prepared 0.0000
14 H14 220.7467 153.5666 176.0211 H 778 ligands_prepared 0.0000
15 H15 220.0822 151.4451 178.2510 H 778 ligands_prepared 0.0000
16 H16 221.7117 151.7700 177.5791 H 778 ligands_prepared 0.0000
17 H17 219.9026 153.9097 179.0269 H 778 ligands_prepared 0.0000
18 H18 221.5278 154.2464 178.3549 H 778 ligands_prepared 0.0000
19 H19 219.4503 153.8448 173.9694 H 778 ligands_prepared 0.0000
20 H20 220.0045 152.2853 174.6546 H 778 ligands_prepared 0.0000
21 H21 219.2148 152.0210 172.2701 H 778 ligands_prepared 0.0000
22 H22 217.9118 149.9965 172.6553 H 778 ligands_prepared 0.0000
23 H23 218.6197 150.2032 174.2822 H 778 ligands_prepared 0.0000
24 H24 215.8723 150.3344 173.6124 H 778 ligands_prepared 0.0000
25 H25 216.5411 150.6858 175.1012 H 778 ligands_prepared 0.0000
26 H26 215.1898 152.5547 173.6840 H 778 ligands_prepared 0.0000
27 H27 216.7859 152.4427 171.7201 H 778 ligands_prepared 0.0000
28 H28 217.2977 153.8916 172.5753 H 778 ligands_prepared 0.0000
29 H29 216.5569 154.3090 174.9189 H 778 ligands_prepared 0.0000
30 H30 216.0932 152.9535 175.9884 H 778 ligands_prepared 0.0000
@<TRIPOS>BOND
      1     1     2    2
      2     2     3    1
      3     2     6   am
      4     3     4    1
      5     3     5    1
      6     3    14    1
      7     4     5    1
      8     4    15    1
      9     4    16    1
     10     5    17    1
     11     5    18    1
     12     7     6    1
     13     6    13    1
     14     7     8    1
     15     7    19    1
     16     7    20    1
     17     8     9    1
     18     8    12    1
     19     8    21    1
     20     9    10    1
     21     9    22    1
     22     9    23    1
     23    10    11    1
     24    10    24    1
     25    10    25    1
     26    11    12    1
     27    11    13    1
     28    11    26    1
     29    12    27    1
     30    12    28    1
     31    13    29    1
     32    13    30    1
@<TRIPOS>MOLECULE
CHEMBL2179969_LIG
30 32 1 0 0
SMALL
USER_CHARGES

@<TRIPOS>ATOM
1 O1 221.1078 152.5019 176.2834 O.2 778 ligands_prepared 0.0000
2 C2 219.9677 152.8039 176.6488 C.2 778 ligands_prepared 0.0000
3 C3 219.7671 153.2380 178.0288 C.2 778 ligands_prepared 0.0000
4 C4 218.7115 153.0459 178.8851 C.2 778 ligands_prepared 0.0000
5 C5 219.0622 153.7000 180.1147 C.2 778 ligands_prepared 0.0000
6 C6 220.3069 154.2413 179.9218 C.2 778 ligands_prepared 0.0000
7 O7 220.7625 153.9772 178.6525 O.3 778 ligands_prepared 0.0000
8 N8 218.9311 152.6907 175.7731 N.am 778 ligands_prepared 0.0000
9 C9 217.4859 153.0879 176.1472 C.3 778 ligands_prepared 0.0000
10 C10 216.8566 152.7825 174.8106 C.3 778 ligands_prepared 0.0000
11 C11 215.8941 152.2998 173.7465 C.3 778 ligands_prepared 0.0000
12 N12 217.0872 151.8697 172.7502 N.4 778 ligands_prepared 1.0000
13 C13 218.3608 152.7194 173.1928 C.3 778 ligands_prepared 0.0000
14 C14 217.6237 153.8364 173.8772 C.3 778 ligands_prepared 0.0000
15 C15 219.2716 152.1789 174.3748 C.3 778 ligands_prepared 0.0000
16 H16 217.7947 152.5156 178.6906 H 778 ligands_prepared 0.0000
17 H17 218.4498 153.7427 180.9950 H 778 ligands_prepared 0.0000
18 H18 221.0003 154.8104 180.5085 H 778 ligands_prepared 0.0000
19 H19 217.1357 152.4552 176.9888 H 778 ligands_prepared 0.0000
20 H20 217.4537 154.1542 176.4481 H 778 ligands_prepared 0.0000
21 H21 217.2469 151.6413 174.9177 H 778 ligands_prepared 0.0000
22 H22 215.2807 151.4129 173.9832 H 778 ligands_prepared 0.0000
23 H23 215.2580 153.0543 173.2536 H 778 ligands_prepared 0.0000
24 H24 217.2610 150.8558 172.8087 H 778 ligands_prepared 0.0000
25 H25 216.8447 152.0926 171.7721 H 778 ligands_prepared 0.0000
26 H26 218.9510 152.9031 172.2748 H 778 ligands_prepared 0.0000
27 H27 218.2442 154.5848 174.3929 H 778 ligands_prepared 0.0000
28 H28 216.9486 154.4478 173.2584 H 778 ligands_prepared 0.0000
29 H29 219.2746 151.0685 174.4006 H 778 ligands_prepared 0.0000
30 H30 220.3160 152.5087 174.1495 H 778 ligands_prepared 0.0000
@<TRIPOS>BOND
      1     1     2    2
      2     2     3    1
      3     2     8   am
      4     3     4    2
      5     3     7    1
      6     4     5    1
      7     4    16    1
      8     5     6    2
      9     5    17    1
     10     6     7    1
     11     6    18    1
     12     9     8    1
     13     8    15    1
     14     9    10    1
     15     9    19    1
     16     9    20    1
     17    10    11    1
     18    10    14    1
     19    10    21    1
     20    11    12    1
     21    11    22    1
     22    11    23    1
     23    12    13    1
     24    12    24    1
     25    12    25    1
     26    13    14    1
     27    13    15    1
     28    13    26    1
     29    14    27    1
     30    14    28    1
     31    15    29    1
     32    15    30    1
@<TRIPOS>MOLECULE
CHEMBL2179970_LIG
30 32 1 0 0
SMALL
USER_CHARGES

@<TRIPOS>ATOM
1 O1 221.4385 152.4019 176.6276 O.2 778 ligands_prepared 0.0000
2 C2 220.2667 152.7223 176.8517 C.2 778 ligands_prepared 0.0000
3 C3 219.8937 153.1273 178.2008 C.2 778 ligands_prepared 0.0000
4 C4 218.7995 152.8002 178.9644 C.2 778 ligands_prepared 0.0000
5 C5 218.9433 153.5149 180.2026 C.2 778 ligands_prepared 0.0000
6 C6 220.1053 154.2347 180.1006 C.2 778 ligands_prepared 0.0000
7 O7 220.7123 154.0159 178.8863 O.3 778 ligands_prepared 0.0000
8 N8 219.3765 152.7309 175.8126 N.am 778 ligands_prepared 0.0000
9 C9 219.7961 152.5102 174.4153 C.3 778 ligands_prepared 0.0000
10 C10 218.6082 152.2329 173.4752 C.3 778 ligands_prepared 0.0000
11 C11 217.8491 150.9607 173.9030 C.3 778 ligands_prepared 0.0000
12 N12 216.8231 151.4334 174.9282 N.4 778 ligands_prepared 1.0000
13 C13 217.0017 152.9545 175.0309 C.3 778 ligands_prepared 0.0000
14 C14 217.5603 153.3426 173.6588 C.3 778 ligands_prepared 0.0000
15 C15 218.0390 153.2806 176.1157 C.3 778 ligands_prepared 0.0000
16 H16 217.9890 152.1434 178.6994 H 778 ligands_prepared 0.0000
17 H17 218.2582 153.4720 181.0286 H 778 ligands_prepared 0.0000
18 H18 220.6486 154.9189 180.7238 H 778 ligands_prepared 0.0000
19 H19 220.3626 153.4016 174.0477 H 778 ligands_prepared 0.0000
20 H20 220.4921 151.6336 174.3769 H 778 ligands_prepared 0.0000
21 H21 218.9736 152.1545 172.4274 H 778 ligands_prepared 0.0000
22 H22 217.3295 150.4809 173.0451 H 778 ligands_prepared 0.0000
23 H23 218.5088 150.1880 174.3503 H 778 ligands_prepared 0.0000
24 H24 216.9705 150.9730 175.8498 H 778 ligands_prepared 0.0000
25 H25 215.8570 151.1969 174.6242 H 778 ligands_prepared 0.0000
26 H26 216.0165 153.4249 175.2736 H 778 ligands_prepared 0.0000
27 H27 216.7906 153.3340 172.8653 H 778 ligands_prepared 0.0000
28 H28 217.9951 154.3579 173.6390 H 778 ligands_prepared 0.0000
29 H29 218.1028 154.3919 176.2411 H 778 ligands_prepared 0.0000
30 H30 217.7019 152.8833 177.1103 H 778 ligands_prepared 0.0000
@<TRIPOS>BOND
      1     1     2    2
      2     2     3    1
      3     2     8   am
      4     3     4    2
      5     3     7    1
      6     4     5    1
      7     4    16    1
      8     5     6    2
      9     5    17    1
     10     6     7    1
     11     6    18    1
     12     9     8    1
     13     8    15    1
     14     9    10    1
     15     9    19    1
     16     9    20    1
     17    10    11    1
     18    10    14    1
     19    10    21    1
     20    11    12    1
     21    11    22    1
     22    11    23    1
     23    12    13    1
     24    12    24    1
     25    12    25    1
     26    13    14    1
     27    13    15    1
     28    13    26    1
     29    14    27    1
     30    14    28    1
     31    15    29    1
     32    15    30    1
@<TRIPOS>MOLECULE
CHEMBL2180250_LIG
54 58 1 0 0
SMALL
USER_CHARGES

@<TRIPOS>ATOM
1 C1 227.8013 159.3050 178.7292 C.3 778 ligands_prepared 0.0000
2 C2 226.9364 158.7435 177.6874 C.2 778 ligands_prepared 0.0000
3 C3 226.3661 159.3729 176.6137 C.2 778 ligands_prepared 0.0000
4 C4 226.3480 160.7448 176.1004 C.2 778 ligands_prepared 0.0000
5 O5 225.6031 161.1042 175.1971 O.2 778 ligands_prepared 0.0000
6 N6 227.2149 161.6233 176.7011 N.am 778 ligands_prepared 0.0000
7 C7 227.2558 163.0281 176.3085 C.3 778 ligands_prepared 0.0000
8 C8 227.7489 163.1856 174.8466 C.3 778 ligands_prepared 0.0000
9 C9 227.6076 164.6690 174.4770 C.3 778 ligands_prepared 0.0000
10 C10 228.4386 165.5184 175.4498 C.3 778 ligands_prepared 0.0000
11 N11 229.2015 164.6258 176.4124 N.4 778 ligands_prepared 1.0000
12 C12 230.0882 163.6828 175.6175 C.3 778 ligands_prepared 0.0000
13 C13 229.2241 162.7778 174.7272 C.3 778 ligands_prepared 0.0000
14 C14 228.2432 163.7882 177.2546 C.3 778 ligands_prepared 0.0000
15 C15 227.4975 164.6676 178.2618 C.3 778 ligands_prepared 0.0000
16 C16 227.5844 164.1124 179.6434 C.ar 778 ligands_prepared 0.0000
17 C17 226.9911 164.7707 180.7247 C.ar 778 ligands_prepared 0.0000
18 C18 227.0967 164.2195 181.9977 C.ar 778 ligands_prepared 0.0000
19 C19 227.8051 163.0216 182.1564 C.ar 778 ligands_prepared 0.0000
20 N20 228.3881 162.3851 181.1204 N.ar 778 ligands_prepared 0.0000
21 C21 228.2795 162.9190 179.8890 C.ar 778 ligands_prepared 0.0000
22 O22 225.6143 158.4973 175.8175 O.3 778 ligands_prepared 0.0000
23 C23 225.7115 157.2725 176.4398 C.ar 778 ligands_prepared 0.0000
24 C24 225.1040 156.1011 176.0031 C.ar 778 ligands_prepared 0.0000
25 C25 225.3330 154.9751 176.7835 C.ar 778 ligands_prepared 0.0000
26 C26 226.1312 155.0287 177.9420 C.ar 778 ligands_prepared 0.0000
27 C27 226.7275 156.2099 178.3639 C.ar 778 ligands_prepared 0.0000
28 C28 226.5183 157.3564 177.5999 C.ar 778 ligands_prepared 0.0000
29 H29 227.2154 159.7333 179.5638 H 778 ligands_prepared 0.0000
30 H30 228.4621 160.1086 178.3601 H 778 ligands_prepared 0.0000
31 H31 228.4626 158.5472 179.1861 H 778 ligands_prepared 0.0000
32 H32 227.8238 161.3347 177.4630 H 778 ligands_prepared 0.0000
33 H33 226.2197 163.4694 176.3920 H 778 ligands_prepared 0.0000
34 H34 227.1222 162.5580 174.1679 H 778 ligands_prepared 0.0000
35 H35 226.5437 164.9848 174.4912 H 778 ligands_prepared 0.0000
36 H36 227.9378 164.8348 173.4318 H 778 ligands_prepared 0.0000
37 H37 229.1740 166.1561 174.9040 H 778 ligands_prepared 0.0000
38 H38 227.7969 166.2192 176.0310 H 778 ligands_prepared 0.0000
39 H39 229.7873 165.2222 177.0518 H 778 ligands_prepared 0.0000
40 H40 230.7141 163.0905 176.3249 H 778 ligands_prepared 0.0000
41 H41 230.8020 164.2912 175.0139 H 778 ligands_prepared 0.0000
42 H42 229.3674 161.7104 174.9862 H 778 ligands_prepared 0.0000
43 H43 229.5526 162.8493 173.6686 H 778 ligands_prepared 0.0000
44 H44 228.8757 163.0434 177.8193 H 778 ligands_prepared 0.0000
45 H45 227.8480 165.7242 178.2210 H 778 ligands_prepared 0.0000
46 H46 226.4232 164.7447 177.9492 H 778 ligands_prepared 0.0000
47 H47 226.4511 165.7108 180.5748 H 778 ligands_prepared 0.0000
48 H48 226.6388 164.7082 182.8588 H 778 ligands_prepared 0.0000
49 H49 227.9189 162.5472 183.1415 H 778 ligands_prepared 0.0000
50 H50 228.7754 162.3653 179.0793 H 778 ligands_prepared 0.0000
51 H51 224.4870 156.0733 175.1081 H 778 ligands_prepared 0.0000
52 H52 224.8830 154.0191 176.4950 H 778 ligands_prepared 0.0000
53 H53 226.2784 154.1159 178.5222 H 778 ligands_prepared 0.0000
54 H54 227.3404 156.2483 179.2653 H 778 ligands_prepared 0.0000
@<TRIPOS>BOND
      1     1     2    1
      2     1    29    1
      3     1    30    1
      4     1    31    1
      5     2     3    2
      6     2    28    1
      7     3     4    1
      8     3    22    1
      9     4     5    2
     10     4     6   am
     11     6     7    1
     12     6    32    1
     13     7     8    1
     14     7    14    1
     15     7    33    1
     16     8     9    1
     17     8    13    1
     18     8    34    1
     19     9    10    1
     20     9    35    1
     21     9    36    1
     22    10    11    1
     23    10    37    1
     24    10    38    1
     25    11    12    1
     26    11    14    1
     27    11    39    1
     28    12    13    1
     29    12    40    1
     30    12    41    1
     31    13    42    1
     32    13    43    1
     33    14    15    1
     34    14    44    1
     35    15    16    1
     36    15    45    1
     37    15    46    1
     38    16    17   ar
     39    16    21   ar
     40    17    18   ar
     41    17    47    1
     42    18    19   ar
     43    18    48    1
     44    19    20   ar
     45    19    49    1
     46    20    21   ar
     47    21    50    1
     48    22    23    1
     49    23    24   ar
     50    23    28   ar
     51    24    25   ar
     52    24    51    1
     53    25    26   ar
     54    25    52    1
     55    26    27   ar
     56    26    53    1
     57    27    28   ar
     58    27    54    1
@<TRIPOS>MOLECULE
CHEMBL2180251_LIG
54 58 1 0 0
SMALL
USER_CHARGES

@<TRIPOS>ATOM
1 C1 226.5018 159.1278 176.6797 C.3 778 ligands_prepared 0.0000
2 C2 226.2469 157.7131 177.0669 C.ar 778 ligands_prepared 0.0000
3 C3 226.8934 157.1900 178.2075 C.ar 778 ligands_prepared 0.0000
4 C4 226.6880 155.8832 178.6291 C.ar 778 ligands_prepared 0.0000
5 C5 225.8130 155.1310 177.8586 C.ar 778 ligands_prepared 0.0000
6 O6 225.4725 153.8141 178.0957 O.3 778 ligands_prepared 0.0000
7 C7 224.5680 153.4830 177.0809 C.2 778 ligands_prepared 0.0000
8 C8 224.0823 152.0976 177.1351 C.2 778 ligands_prepared 0.0000
9 O9 224.8125 151.1416 176.9155 O.2 778 ligands_prepared 0.0000
10 N10 222.7574 151.9393 177.4411 N.am 778 ligands_prepared 0.0000
11 C11 221.9041 153.1022 177.6683 C.3 778 ligands_prepared 0.0000
12 C12 221.8588 153.4559 179.1764 C.3 778 ligands_prepared 0.0000
13 C13 221.1033 154.7851 179.3141 C.3 778 ligands_prepared 0.0000
14 C14 219.7046 154.6442 178.6962 C.3 778 ligands_prepared 0.0000
15 N15 219.4615 153.2101 178.2648 N.4 778 ligands_prepared 1.0000
16 C16 219.6516 152.2903 179.4584 C.3 778 ligands_prepared 0.0000
17 C17 221.1003 152.3767 179.9605 C.3 778 ligands_prepared 0.0000
18 C18 220.4494 152.7941 177.1786 C.3 778 ligands_prepared 0.0000
19 C19 220.1414 153.5130 175.8626 C.3 778 ligands_prepared 0.0000
20 C20 219.0066 152.8795 175.1305 C.ar 778 ligands_prepared 0.0000
21 C21 217.6813 153.0924 175.5181 C.ar 778 ligands_prepared 0.0000
22 C22 216.6575 152.4835 174.7991 C.ar 778 ligands_prepared 0.0000
23 C23 216.9898 151.6717 173.7071 C.ar 778 ligands_prepared 0.0000
24 N24 218.2662 151.4486 173.3366 N.ar 778 ligands_prepared 0.0000
25 C25 219.2545 152.0384 174.0359 C.ar 778 ligands_prepared 0.0000
26 C26 224.3344 154.5245 176.2320 C.2 778 ligands_prepared 0.0000
27 C27 225.1426 155.6233 176.7139 C.ar 778 ligands_prepared 0.0000
28 C28 225.3701 156.9374 176.3128 C.ar 778 ligands_prepared 0.0000
29 H29 226.3709 159.3032 175.6020 H 778 ligands_prepared 0.0000
30 H30 227.5210 159.4567 176.9334 H 778 ligands_prepared 0.0000
31 H31 225.8089 159.8102 177.1998 H 778 ligands_prepared 0.0000
32 H32 227.5745 157.8322 178.7718 H 778 ligands_prepared 0.0000
33 H33 227.1820 155.4685 179.5053 H 778 ligands_prepared 0.0000
34 H34 222.3142 151.0190 177.4433 H 778 ligands_prepared 0.0000
35 H35 222.3229 153.9789 177.0950 H 778 ligands_prepared 0.0000
36 H36 222.8978 153.5603 179.5725 H 778 ligands_prepared 0.0000
37 H37 221.0287 155.0691 180.3842 H 778 ligands_prepared 0.0000
38 H38 221.6609 155.6157 178.8370 H 778 ligands_prepared 0.0000
39 H39 219.5756 155.3167 177.8186 H 778 ligands_prepared 0.0000
40 H40 218.9104 154.9312 179.4252 H 778 ligands_prepared 0.0000
41 H41 218.4825 153.1214 177.8911 H 778 ligands_prepared 0.0000
42 H42 218.9249 152.5837 180.2513 H 778 ligands_prepared 0.0000
43 H43 219.3795 151.2510 179.1605 H 778 ligands_prepared 0.0000
44 H44 221.6024 151.3910 179.8838 H 778 ligands_prepared 0.0000
45 H45 221.1179 152.6116 181.0448 H 778 ligands_prepared 0.0000
46 H46 220.3267 151.6831 177.0349 H 778 ligands_prepared 0.0000
47 H47 219.9634 154.6003 176.0284 H 778 ligands_prepared 0.0000
48 H48 221.0652 153.5005 175.2258 H 778 ligands_prepared 0.0000
49 H49 217.4507 153.7286 176.3772 H 778 ligands_prepared 0.0000
50 H50 215.6135 152.6326 175.0766 H 778 ligands_prepared 0.0000
51 H51 216.2175 151.1745 173.1029 H 778 ligands_prepared 0.0000
52 H52 220.2800 151.8191 173.7029 H 778 ligands_prepared 0.0000
53 H53 223.6916 154.5507 175.3680 H 778 ligands_prepared 0.0000
54 H54 224.8718 157.3404 175.4307 H 778 ligands_prepared 0.0000
@<TRIPOS>BOND
      1     1     2    1
      2     1    29    1
      3     1    30    1
      4     1    31    1
      5     2     3   ar
      6     2    28   ar
      7     3     4   ar
      8     3    32    1
      9     4     5   ar
     10     4    33    1
     11     5     6    1
     12     5    27   ar
     13     6     7    1
     14     7     8    1
     15     7    26    2
     16     8     9    2
     17     8    10   am
     18    10    11    1
     19    10    34    1
     20    11    12    1
     21    11    18    1
     22    11    35    1
     23    12    13    1
     24    12    17    1
     25    12    36    1
     26    13    14    1
     27    13    37    1
     28    13    38    1
     29    14    15    1
     30    14    39    1
     31    14    40    1
     32    15    16    1
     33    15    18    1
     34    15    41    1
     35    16    17    1
     36    16    42    1
     37    16    43    1
     38    17    44    1
     39    17    45    1
     40    18    19    1
     41    18    46    1
     42    19    20    1
     43    19    47    1
     44    19    48    1
     45    20    21   ar
     46    20    25   ar
     47    21    22   ar
     48    21    49    1
     49    22    23   ar
     50    22    50    1
     51    23    24   ar
     52    23    51    1
     53    24    25   ar
     54    25    52    1
     55    26    27    1
     56    26    53    1
     57    27    28   ar
     58    28    54    1
@<TRIPOS>MOLECULE
CHEMBL2180252_LIG
54 58 1 0 0
SMALL
USER_CHARGES

@<TRIPOS>ATOM
1 C1 227.8433 157.9362 179.0786 C.3 778 ligands_prepared 0.0000
2 C2 226.8994 157.1036 178.2881 C.ar 778 ligands_prepared 0.0000
3 C3 226.2945 157.6561 177.1373 C.ar 778 ligands_prepared 0.0000
4 C4 225.3980 156.9371 176.3609 C.ar 778 ligands_prepared 0.0000
5 C5 225.1040 155.6277 176.7415 C.ar 778 ligands_prepared 0.0000
6 C6 224.2659 154.5696 176.2289 C.2 778 ligands_prepared 0.0000
7 C7 224.4470 153.5043 177.0616 C.2 778 ligands_prepared 0.0000
8 C8 223.9658 152.1194 177.0882 C.2 778 ligands_prepared 0.0000
9 O9 224.7060 151.1612 176.9024 O.2 778 ligands_prepared 0.0000
10 N10 222.6252 151.9442 177.3048 N.am 778 ligands_prepared 0.0000
11 C11 221.7805 153.1089 177.5589 C.3 778 ligands_prepared 0.0000
12 C12 221.8247 153.5139 179.0527 C.3 778 ligands_prepared 0.0000
13 C13 221.2187 152.4187 179.9402 C.3 778 ligands_prepared 0.0000
14 C14 219.7945 152.0905 179.4683 C.3 778 ligands_prepared 0.0000
15 N15 219.3881 153.0433 178.3592 N.4 778 ligands_prepared 1.0000
16 C16 219.5136 154.4672 178.8653 C.3 778 ligands_prepared 0.0000
17 C17 220.9800 154.7896 179.1875 C.3 778 ligands_prepared 0.0000
18 C18 220.2993 152.8004 177.1579 C.3 778 ligands_prepared 0.0000
19 C19 219.8716 153.6629 175.9667 C.3 778 ligands_prepared 0.0000
20 C20 218.7964 153.0172 175.1615 C.ar 778 ligands_prepared 0.0000
21 C21 217.4623 153.4033 175.3067 C.ar 778 ligands_prepared 0.0000
22 C22 216.4844 152.7753 174.5426 C.ar 778 ligands_prepared 0.0000
23 C23 216.8743 151.7798 173.6398 C.ar 778 ligands_prepared 0.0000
24 N24 218.1612 151.4095 173.4845 N.ar 778 ligands_prepared 0.0000
25 C25 219.1047 152.0165 174.2281 C.ar 778 ligands_prepared 0.0000
26 O26 225.3406 153.7872 178.1025 O.3 778 ligands_prepared 0.0000
27 C27 225.7313 155.0936 177.8929 C.ar 778 ligands_prepared 0.0000
28 C28 226.6220 155.7974 178.6892 C.ar 778 ligands_prepared 0.0000
29 H29 228.4209 157.3552 179.8133 H 778 ligands_prepared 0.0000
30 H30 228.5719 158.4597 178.4394 H 778 ligands_prepared 0.0000
31 H31 227.3065 158.7188 179.6427 H 778 ligands_prepared 0.0000
32 H32 226.5439 158.6801 176.8560 H 778 ligands_prepared 0.0000
33 H33 224.9345 157.3748 175.4770 H 778 ligands_prepared 0.0000
34 H34 223.6412 154.6408 175.3548 H 778 ligands_prepared 0.0000
35 H35 222.1823 151.0273 177.2771 H 778 ligands_prepared 0.0000
36 H36 222.1651 153.9705 176.9373 H 778 ligands_prepared 0.0000
37 H37 222.8792 153.7149 179.3599 H 778 ligands_prepared 0.0000
38 H38 221.8473 151.5068 179.9482 H 778 ligands_prepared 0.0000
39 H39 221.2092 152.7559 180.9978 H 778 ligands_prepared 0.0000
40 H40 219.0563 152.1731 180.3001 H 778 ligands_prepared 0.0000
41 H41 219.7165 151.0434 179.0921 H 778 ligands_prepared 0.0000
42 H42 218.3930 152.8564 178.0709 H 778 ligands_prepared 0.0000
43 H43 219.0980 155.1665 178.1071 H 778 ligands_prepared 0.0000
44 H44 218.8678 154.5774 179.7690 H 778 ligands_prepared 0.0000
45 H45 221.0696 155.2052 180.2118 H 778 ligands_prepared 0.0000
46 H46 221.3634 155.5919 178.5246 H 778 ligands_prepared 0.0000
47 H47 220.1967 151.7115 176.8901 H 778 ligands_prepared 0.0000
48 H48 220.7732 153.8576 175.3284 H 778 ligands_prepared 0.0000
49 H49 219.5719 154.6844 176.2985 H 778 ligands_prepared 0.0000
50 H50 217.1833 154.1961 176.0073 H 778 ligands_prepared 0.0000
51 H51 215.4343 153.0531 174.6407 H 778 ligands_prepared 0.0000
52 H52 216.1401 151.2583 173.0084 H 778 ligands_prepared 0.0000
53 H53 220.1402 151.6867 174.0586 H 778 ligands_prepared 0.0000
54 H54 227.0736 155.3520 179.5714 H 778 ligands_prepared 0.0000
@<TRIPOS>BOND
      1     1     2    1
      2     1    29    1
      3     1    30    1
      4     1    31    1
      5     2     3   ar
      6     2    28   ar
      7     3     4   ar
      8     3    32    1
      9     4     5   ar
     10     4    33    1
     11     5     6    1
     12     5    27   ar
     13     6     7    2
     14     6    34    1
     15     7     8    1
     16     7    26    1
     17     8     9    2
     18     8    10   am
     19    10    11    1
     20    10    35    1
     21    11    12    1
     22    11    18    1
     23    11    36    1
     24    12    13    1
     25    12    17    1
     26    12    37    1
     27    13    14    1
     28    13    38    1
     29    13    39    1
     30    14    15    1
     31    14    40    1
     32    14    41    1
     33    15    16    1
     34    15    18    1
     35    15    42    1
     36    16    17    1
     37    16    43    1
     38    16    44    1
     39    17    45    1
     40    17    46    1
     41    18    19    1
     42    18    47    1
     43    19    20    1
     44    19    48    1
     45    19    49    1
     46    20    21   ar
     47    20    25   ar
     48    21    22   ar
     49    21    50    1
     50    22    23   ar
     51    22    51    1
     52    23    24   ar
     53    23    52    1
     54    24    25   ar
     55    25    53    1
     56    26    27    1
     57    27    28   ar
     58    28    54    1
@<TRIPOS>MOLECULE
CHEMBL2180253_LIG
52 56 1 0 0
SMALL
USER_CHARGES

@<TRIPOS>ATOM
1 O1 224.7368 151.2188 176.9513 O.2 778 ligands_prepared 0.0000
2 C2 223.9857 152.1719 177.1138 C.2 778 ligands_prepared 0.0000
3 N3 222.6390 151.9957 177.2838 N.am 778 ligands_prepared 0.0000
4 C4 221.7785 153.1578 177.4994 C.3 778 ligands_prepared 0.0000
5 C5 221.7875 153.5830 178.9889 C.3 778 ligands_prepared 0.0000
6 C6 221.1557 152.5043 179.8787 C.3 778 ligands_prepared 0.0000
7 C7 219.7421 152.1743 179.3826 C.3 778 ligands_prepared 0.0000
8 N8 219.3671 153.1070 178.2454 N.4 778 ligands_prepared 1.0000
9 C9 219.4885 154.5403 178.7278 C.3 778 ligands_prepared 0.0000
10 C10 220.9457 154.8646 179.0847 C.3 778 ligands_prepared 0.0000
11 C11 220.3077 152.8325 177.0740 C.3 778 ligands_prepared 0.0000
12 C12 219.8952 153.6460 175.8421 C.3 778 ligands_prepared 0.0000
13 C13 218.7953 152.9861 175.0848 C.ar 778 ligands_prepared 0.0000
14 C14 217.4684 153.4017 175.2318 C.ar 778 ligands_prepared 0.0000
15 C15 216.4711 152.7649 174.5005 C.ar 778 ligands_prepared 0.0000
16 C16 216.8293 151.7191 173.6407 C.ar 778 ligands_prepared 0.0000
17 N17 218.1032 151.3000 173.5048 N.ar 778 ligands_prepared 0.0000
18 C18 219.0657 151.9205 174.2127 C.ar 778 ligands_prepared 0.0000
19 C19 224.4623 153.5640 177.0886 C.2 778 ligands_prepared 0.0000
20 C20 224.2510 154.6188 176.2494 C.2 778 ligands_prepared 0.0000
21 C21 225.0970 155.6866 176.7310 C.ar 778 ligands_prepared 0.0000
22 C22 225.3681 156.9902 176.3190 C.ar 778 ligands_prepared 0.0000
23 C23 226.2861 157.6999 177.0856 C.ar 778 ligands_prepared 0.0000
24 O24 226.6436 158.9731 176.7826 O.3 778 ligands_prepared 0.0000
25 C25 226.9278 157.1795 178.2329 C.ar 778 ligands_prepared 0.0000
26 C26 226.6666 155.8824 178.6414 C.ar 778 ligands_prepared 0.0000
27 C27 225.7585 155.1649 177.8707 C.ar 778 ligands_prepared 0.0000
28 O28 225.3758 153.8542 178.0993 O.3 778 ligands_prepared 0.0000
29 H29 222.1952 151.0801 177.2183 H 778 ligands_prepared 0.0000
30 H30 222.1675 154.0146 176.8743 H 778 ligands_prepared 0.0000
31 H31 222.8348 153.7847 179.3202 H 778 ligands_prepared 0.0000
32 H32 221.1243 152.8566 180.9311 H 778 ligands_prepared 0.0000
33 H33 221.7825 151.5906 179.9191 H 778 ligands_prepared 0.0000
34 H34 219.6633 151.1199 179.0284 H 778 ligands_prepared 0.0000
35 H35 218.9875 152.2801 180.1969 H 778 ligands_prepared 0.0000
36 H36 218.3754 152.9276 177.9388 H 778 ligands_prepared 0.0000
37 H37 219.0936 155.2278 177.9464 H 778 ligands_prepared 0.0000
38 H38 218.8181 154.6705 179.6119 H 778 ligands_prepared 0.0000
39 H39 221.0113 155.2957 180.1035 H 778 ligands_prepared 0.0000
40 H40 221.3493 155.6555 178.4203 H 778 ligands_prepared 0.0000
41 H41 220.2180 151.7343 176.8385 H 778 ligands_prepared 0.0000
42 H42 219.6370 154.6921 176.1216 H 778 ligands_prepared 0.0000
43 H43 220.7972 153.7711 175.1851 H 778 ligands_prepared 0.0000
44 H44 217.2170 154.2145 175.9195 H 778 ligands_prepared 0.0000
45 H45 215.4287 153.0716 174.5945 H 778 ligands_prepared 0.0000
46 H46 216.0778 151.1887 173.0364 H 778 ligands_prepared 0.0000
47 H47 220.0884 151.5426 174.0707 H 778 ligands_prepared 0.0000
48 H48 223.6002 154.6779 175.3938 H 778 ligands_prepared 0.0000
49 H49 224.8834 157.4233 175.4464 H 778 ligands_prepared 0.0000
50 H50 227.4202 159.2966 177.3225 H 778 ligands_prepared 0.0000
51 H51 227.6257 157.8139 178.7844 H 778 ligands_prepared 0.0000
52 H52 227.1460 155.4445 179.5177 H 778 ligands_prepared 0.0000
@<TRIPOS>BOND
      1     1     2    2
      2     2     3   am
      3     2    19    1
      4     3     4    1
      5     3    29    1
      6     4     5    1
      7     4    11    1
      8     4    30    1
      9     5     6    1
     10     5    10    1
     11     5    31    1
     12     6     7    1
     13     6    32    1
     14     6    33    1
     15     7     8    1
     16     7    34    1
     17     7    35    1
     18     8     9    1
     19     8    11    1
     20     8    36    1
     21     9    10    1
     22     9    37    1
     23     9    38    1
     24    10    39    1
     25    10    40    1
     26    11    12    1
     27    11    41    1
     28    12    13    1
     29    12    42    1
     30    12    43    1
     31    13    14   ar
     32    13    18   ar
     33    14    15   ar
     34    14    44    1
     35    15    16   ar
     36    15    45    1
     37    16    17   ar
     38    16    46    1
     39    17    18   ar
     40    18    47    1
     41    19    20    2
     42    19    28    1
     43    20    21    1
     44    20    48    1
     45    21    22   ar
     46    21    27   ar
     47    22    23   ar
     48    22    49    1
     49    23    24    1
     50    23    25   ar
     51    24    50    1
     52    25    26   ar
     53    25    51    1
     54    26    27   ar
     55    26    52    1
     56    27    28    1
@<TRIPOS>MOLECULE
CHEMBL2180254_LIG
51 55 1 0 0
SMALL
USER_CHARGES

@<TRIPOS>ATOM
1 O1 224.7282 151.0830 176.9225 O.2 778 ligands_prepared 0.0000
2 C2 224.0148 152.0472 177.1496 C.2 778 ligands_prepared 0.0000
3 N3 222.6992 151.9210 177.5000 N.am 778 ligands_prepared 0.0000
4 C4 221.8689 153.1005 177.7257 C.3 778 ligands_prepared 0.0000
5 C5 221.7351 153.4033 179.2423 C.3 778 ligands_prepared 0.0000
6 C6 220.8215 152.3678 179.9137 C.3 778 ligands_prepared 0.0000
7 C7 219.3996 152.4891 179.3449 C.3 778 ligands_prepared 0.0000
8 N8 219.4113 153.3928 178.1249 N.4 778 ligands_prepared 1.0000
9 C9 219.7767 154.7998 178.5593 C.3 778 ligands_prepared 0.0000
10 C10 221.0869 154.7887 179.3621 C.3 778 ligands_prepared 0.0000
11 C11 220.4415 152.8389 177.1475 C.3 778 ligands_prepared 0.0000
12 C12 220.2468 153.4553 175.7573 C.3 778 ligands_prepared 0.0000
13 C13 219.0739 152.8206 175.0857 C.ar 778 ligands_prepared 0.0000
14 C14 217.7691 153.1219 175.4836 C.ar 778 ligands_prepared 0.0000
15 C15 216.7013 152.4949 174.8490 C.ar 778 ligands_prepared 0.0000
16 C16 216.9716 151.5905 173.8163 C.ar 778 ligands_prepared 0.0000
17 N17 218.2255 151.3075 173.4131 N.ar 778 ligands_prepared 0.0000
18 C18 219.2579 151.9042 174.0396 C.ar 778 ligands_prepared 0.0000
19 C19 224.4985 153.4374 177.0808 C.2 778 ligands_prepared 0.0000
20 C20 224.2663 154.4779 176.2310 C.2 778 ligands_prepared 0.0000
21 C21 225.0793 155.5711 176.7127 C.ar 778 ligands_prepared 0.0000
22 C22 225.3159 156.8805 176.2989 C.ar 778 ligands_prepared 0.0000
23 C23 226.2274 157.6014 177.0595 C.ar 778 ligands_prepared 0.0000
24 F24 226.4874 158.8521 176.6968 F 778 ligands_prepared 0.0000
25 C25 226.9001 157.1030 178.1905 C.ar 778 ligands_prepared 0.0000
26 C26 226.6644 155.8013 178.6093 C.ar 778 ligands_prepared 0.0000
27 C27 225.7551 155.0691 177.8543 C.ar 778 ligands_prepared 0.0000
28 O28 225.3959 153.7578 178.0980 O.3 778 ligands_prepared 0.0000
29 H29 222.2634 151.0082 177.6363 H 778 ligands_prepared 0.0000
30 H30 222.3345 153.9900 177.2121 H 778 ligands_prepared 0.0000
31 H31 222.7420 153.3977 179.7220 H 778 ligands_prepared 0.0000
32 H32 220.8101 152.5216 181.0128 H 778 ligands_prepared 0.0000
33 H33 221.2149 151.3414 179.7796 H 778 ligands_prepared 0.0000
34 H34 218.6901 152.9107 180.0943 H 778 ligands_prepared 0.0000
35 H35 218.9840 151.4967 179.0553 H 778 ligands_prepared 0.0000
36 H36 218.4580 153.4001 177.6726 H 778 ligands_prepared 0.0000
37 H37 218.9365 155.2111 179.1651 H 778 ligands_prepared 0.0000
38 H38 219.8542 155.4489 177.6573 H 778 ligands_prepared 0.0000
39 H39 220.8987 155.0314 180.4277 H 778 ligands_prepared 0.0000
40 H40 221.7720 155.5847 179.0053 H 778 ligands_prepared 0.0000
41 H41 220.2563 151.7273 177.0791 H 778 ligands_prepared 0.0000
42 H42 221.1690 153.3620 175.1401 H 778 ligands_prepared 0.0000
43 H43 220.0813 154.5577 175.8384 H 778 ligands_prepared 0.0000
44 H44 217.5885 153.8425 176.2868 H 778 ligands_prepared 0.0000
45 H45 215.6743 152.7060 175.1475 H 778 ligands_prepared 0.0000
46 H46 216.1626 151.0699 173.2837 H 778 ligands_prepared 0.0000
47 H47 220.2628 151.6296 173.6894 H 778 ligands_prepared 0.0000
48 H48 223.6233 154.5124 175.3685 H 778 ligands_prepared 0.0000
49 H49 224.8134 157.2967 175.4249 H 778 ligands_prepared 0.0000
50 H50 227.6075 157.7347 178.7371 H 778 ligands_prepared 0.0000
51 H51 227.1645 155.3703 179.4768 H 778 ligands_prepared 0.0000
@<TRIPOS>BOND
      1     1     2    2
      2     2     3   am
      3     2    19    1
      4     3     4    1
      5     3    29    1
      6     4     5    1
      7     4    11    1
      8     4    30    1
      9     5     6    1
     10     5    10    1
     11     5    31    1
     12     6     7    1
     13     6    32    1
     14     6    33    1
     15     7     8    1
     16     7    34    1
     17     7    35    1
     18     8     9    1
     19     8    11    1
     20     8    36    1
     21     9    10    1
     22     9    37    1
     23     9    38    1
     24    10    39    1
     25    10    40    1
     26    11    12    1
     27    11    41    1
     28    12    13    1
     29    12    42    1
     30    12    43    1
     31    13    14   ar
     32    13    18   ar
     33    14    15   ar
     34    14    44    1
     35    15    16   ar
     36    15    45    1
     37    16    17   ar
     38    16    46    1
     39    17    18   ar
     40    18    47    1
     41    19    20    2
     42    19    28    1
     43    20    21    1
     44    20    48    1
     45    21    22   ar
     46    21    27   ar
     47    22    23   ar
     48    22    49    1
     49    23    24    1
     50    23    25   ar
     51    25    26   ar
     52    25    50    1
     53    26    27   ar
     54    26    51    1
     55    27    28    1
@<TRIPOS>MOLECULE
CHEMBL2180255_LIG
54 58 1 0 0
SMALL
USER_CHARGES

@<TRIPOS>ATOM
1 C1 226.3758 161.5327 170.4874 C.3 778 ligands_prepared 0.0000
2 C2 225.0419 161.6366 171.0865 C.2 778 ligands_prepared 0.0000
3 C3 224.6330 161.2724 172.3426 C.2 778 ligands_prepared 0.0000
4 C4 225.2755 160.6843 173.5220 C.2 778 ligands_prepared 0.0000
5 O5 224.7345 160.6507 174.6181 O.2 778 ligands_prepared 0.0000
6 N6 226.5323 160.1679 173.3290 N.am 778 ligands_prepared 0.0000
7 C7 227.2583 159.5289 174.4230 C.3 778 ligands_prepared 0.0000
8 C8 228.7446 159.2977 174.0486 C.3 778 ligands_prepared 0.0000
9 C9 228.8699 158.2957 172.8943 C.3 778 ligands_prepared 0.0000
10 C10 228.2062 156.9672 173.2830 C.3 778 ligands_prepared 0.0000
11 N11 227.6578 157.0544 174.6955 N.4 778 ligands_prepared 1.0000
12 C12 228.7961 157.3682 175.6481 C.3 778 ligands_prepared 0.0000
13 C13 229.4364 158.7169 175.2898 C.3 778 ligands_prepared 0.0000
14 C14 226.5929 158.1468 174.7330 C.3 778 ligands_prepared 0.0000
15 C15 225.8799 158.1687 176.0882 C.3 778 ligands_prepared 0.0000
16 C16 225.7556 156.8023 176.6728 C.ar 778 ligands_prepared 0.0000
17 C17 226.3416 156.4820 177.8983 C.ar 778 ligands_prepared 0.0000
18 C18 226.2009 155.1923 178.4046 C.ar 778 ligands_prepared 0.0000
19 C19 225.4666 154.2565 177.6659 C.ar 778 ligands_prepared 0.0000
20 N20 224.8850 154.5622 176.4891 N.ar 778 ligands_prepared 0.0000
21 C21 225.0230 155.8094 176.0026 C.ar 778 ligands_prepared 0.0000
22 O22 223.2771 161.5467 172.5643 O.3 778 ligands_prepared 0.0000
23 C23 222.8249 162.1014 171.3883 C.ar 778 ligands_prepared 0.0000
24 C24 221.5222 162.5351 171.1629 C.ar 778 ligands_prepared 0.0000
25 C25 221.2623 163.0722 169.9114 C.ar 778 ligands_prepared 0.0000
26 C26 222.2972 163.1450 168.9582 C.ar 778 ligands_prepared 0.0000
27 F27 221.9989 163.6599 167.7712 F 778 ligands_prepared 0.0000
28 C28 223.6007 162.7170 169.1736 C.ar 778 ligands_prepared 0.0000
29 C29 223.8673 162.1827 170.4326 C.ar 778 ligands_prepared 0.0000
30 H30 227.1861 161.7882 171.1910 H 778 ligands_prepared 0.0000
31 H31 226.5019 162.2010 169.6162 H 778 ligands_prepared 0.0000
32 H32 226.5863 160.5123 170.1146 H 778 ligands_prepared 0.0000
33 H33 226.9789 160.1717 172.4162 H 778 ligands_prepared 0.0000
34 H34 227.2141 160.1901 175.3384 H 778 ligands_prepared 0.0000
35 H35 229.2148 160.2692 173.7637 H 778 ligands_prepared 0.0000
36 H36 229.9420 158.1353 172.6490 H 778 ligands_prepared 0.0000
37 H37 228.4363 158.6965 171.9581 H 778 ligands_prepared 0.0000
38 H38 227.3779 156.6991 172.5874 H 778 ligands_prepared 0.0000
39 H39 228.9299 156.1200 173.2334 H 778 ligands_prepared 0.0000
40 H40 227.2138 156.1378 174.9651 H 778 ligands_prepared 0.0000
41 H41 228.4127 157.3599 176.6933 H 778 ligands_prepared 0.0000
42 H42 229.5402 156.5376 175.5907 H 778 ligands_prepared 0.0000
43 H43 229.3756 159.4204 176.1456 H 778 ligands_prepared 0.0000
44 H44 230.5226 158.5931 175.1017 H 778 ligands_prepared 0.0000
45 H45 225.8458 157.8946 173.9272 H 778 ligands_prepared 0.0000
46 H46 224.8625 158.6194 175.9517 H 778 ligands_prepared 0.0000
47 H47 226.3765 158.8726 176.7946 H 778 ligands_prepared 0.0000
48 H48 226.8992 157.2342 178.4641 H 778 ligands_prepared 0.0000
49 H49 226.6522 154.9142 179.3576 H 778 ligands_prepared 0.0000
50 H50 225.3308 153.2238 178.0194 H 778 ligands_prepared 0.0000
51 H51 224.5239 156.0156 175.0444 H 778 ligands_prepared 0.0000
52 H52 220.7529 162.4572 171.9328 H 778 ligands_prepared 0.0000
53 H53 220.2596 163.4392 169.6668 H 778 ligands_prepared 0.0000
54 H54 224.3792 162.7896 168.4122 H 778 ligands_prepared 0.0000
@<TRIPOS>BOND
      1     1     2    1
      2     1    30    1
      3     1    31    1
      4     1    32    1
      5     2     3    2
      6     2    29    1
      7     3     4    1
      8     3    22    1
      9     4     5    2
     10     4     6   am
     11     6     7    1
     12     6    33    1
     13     7     8    1
     14     7    14    1
     15     7    34    1
     16     8     9    1
     17     8    13    1
     18     8    35    1
     19     9    10    1
     20     9    36    1
     21     9    37    1
     22    10    11    1
     23    10    38    1
     24    10    39    1
     25    11    12    1
     26    11    14    1
     27    11    40    1
     28    12    13    1
     29    12    41    1
     30    12    42    1
     31    13    43    1
     32    13    44    1
     33    14    15    1
     34    14    45    1
     35    15    16    1
     36    15    46    1
     37    15    47    1
     38    16    17   ar
     39    16    21   ar
     40    17    18   ar
     41    17    48    1
     42    18    19   ar
     43    18    49    1
     44    19    20   ar
     45    19    50    1
     46    20    21   ar
     47    21    51    1
     48    22    23    1
     49    23    24   ar
     50    23    29   ar
     51    24    25   ar
     52    24    52    1
     53    25    26   ar
     54    25    53    1
     55    26    27    1
     56    26    28   ar
     57    28    29   ar
     58    28    54    1
@<TRIPOS>MOLECULE
CHEMBL2180256_LIG
54 58 1 0 0
SMALL
USER_CHARGES

@<TRIPOS>ATOM
1 C1 225.0797 162.8016 172.0160 C.3 778 ligands_prepared 0.0000
2 C2 225.4624 161.4225 171.7004 C.2 778 ligands_prepared 0.0000
3 C3 225.7084 160.3824 172.5565 C.2 778 ligands_prepared 0.0000
4 C4 225.6963 160.2178 174.0152 C.2 778 ligands_prepared 0.0000
5 O5 225.4448 161.1346 174.7833 O.2 778 ligands_prepared 0.0000
6 N6 225.9930 158.9585 174.4648 N.am 778 ligands_prepared 0.0000
7 C7 226.0374 158.6531 175.8918 C.3 778 ligands_prepared 0.0000
8 C8 227.1693 159.4603 176.5879 C.3 778 ligands_prepared 0.0000
9 C9 228.5457 158.8913 176.2157 C.3 778 ligands_prepared 0.0000
10 C10 228.6723 157.4526 176.7414 C.3 778 ligands_prepared 0.0000
11 N11 227.3159 156.9705 177.2351 N.4 778 ligands_prepared 1.0000
12 C12 226.9342 157.8061 178.4418 C.3 778 ligands_prepared 0.0000
13 C13 226.9598 159.3024 178.0984 C.3 778 ligands_prepared 0.0000
14 C14 226.3311 157.1327 176.0787 C.3 778 ligands_prepared 0.0000
15 C15 225.0963 156.2383 176.2292 C.3 778 ligands_prepared 0.0000
16 C16 225.3361 154.8103 176.5722 C.ar 778 ligands_prepared 0.0000
17 C17 224.3551 154.0459 177.2099 C.ar 778 ligands_prepared 0.0000
18 C18 224.6159 152.7108 177.5082 C.ar 778 ligands_prepared 0.0000
19 C19 225.8664 152.1802 177.1740 C.ar 778 ligands_prepared 0.0000
20 N20 226.8358 152.9217 176.6010 N.ar 778 ligands_prepared 0.0000
21 C21 226.5804 154.2112 176.3167 C.ar 778 ligands_prepared 0.0000
22 O22 226.0403 159.1978 171.8848 O.3 778 ligands_prepared 0.0000
23 C23 226.0080 159.5337 170.5531 C.ar 778 ligands_prepared 0.0000
24 C24 226.2841 158.6967 169.4763 C.ar 778 ligands_prepared 0.0000
25 F25 226.6088 157.4344 169.6982 F 778 ligands_prepared 0.0000
26 C26 226.2121 159.2125 168.1915 C.ar 778 ligands_prepared 0.0000
27 C27 225.8594 160.5611 168.0032 C.ar 778 ligands_prepared 0.0000
28 C28 225.5760 161.4045 169.0692 C.ar 778 ligands_prepared 0.0000
29 C29 225.6542 160.8891 170.3623 C.ar 778 ligands_prepared 0.0000
30 H30 224.5670 162.9039 172.9856 H 778 ligands_prepared 0.0000
31 H31 225.9594 163.4724 172.0482 H 778 ligands_prepared 0.0000
32 H32 224.4005 163.2342 171.2588 H 778 ligands_prepared 0.0000
33 H33 226.1662 158.1869 173.8225 H 778 ligands_prepared 0.0000
34 H34 225.0545 158.9282 176.3646 H 778 ligands_prepared 0.0000
35 H35 227.1050 160.5355 176.2943 H 778 ligands_prepared 0.0000
36 H36 229.3497 159.5257 176.6432 H 778 ligands_prepared 0.0000
37 H37 228.7154 158.9294 175.1225 H 778 ligands_prepared 0.0000
38 H38 229.4019 157.3826 177.5808 H 778 ligands_prepared 0.0000
39 H39 229.0433 156.7547 175.9568 H 778 ligands_prepared 0.0000
40 H40 227.3724 155.9558 177.5122 H 778 ligands_prepared 0.0000
41 H41 227.6488 157.5713 179.2685 H 778 ligands_prepared 0.0000
42 H42 225.9341 157.4950 178.8094 H 778 ligands_prepared 0.0000
43 H43 227.7679 159.8220 178.6561 H 778 ligands_prepared 0.0000
44 H44 226.0259 159.7988 178.4301 H 778 ligands_prepared 0.0000
45 H45 226.8769 156.7550 175.1559 H 778 ligands_prepared 0.0000
46 H46 224.4701 156.3170 175.3056 H 778 ligands_prepared 0.0000
47 H47 224.4373 156.7061 177.0090 H 778 ligands_prepared 0.0000
48 H48 223.3929 154.4915 177.4796 H 778 ligands_prepared 0.0000
49 H49 223.8623 152.0921 177.9956 H 778 ligands_prepared 0.0000
50 H50 226.1176 151.1296 177.3789 H 778 ligands_prepared 0.0000
51 H51 227.4124 154.7838 175.8751 H 778 ligands_prepared 0.0000
52 H52 226.4290 158.5840 167.3204 H 778 ligands_prepared 0.0000
53 H53 225.8099 160.9512 166.9813 H 778 ligands_prepared 0.0000
54 H54 225.3000 162.4482 168.9070 H 778 ligands_prepared 0.0000
@<TRIPOS>BOND
      1     1     2    1
      2     1    30    1
      3     1    31    1
      4     1    32    1
      5     2     3    2
      6     2    29    1
      7     3     4    1
      8     3    22    1
      9     4     5    2
     10     4     6   am
     11     6     7    1
     12     6    33    1
     13     7     8    1
     14     7    14    1
     15     7    34    1
     16     8     9    1
     17     8    13    1
     18     8    35    1
     19     9    10    1
     20     9    36    1
     21     9    37    1
     22    10    11    1
     23    10    38    1
     24    10    39    1
     25    11    12    1
     26    11    14    1
     27    11    40    1
     28    12    13    1
     29    12    41    1
     30    12    42    1
     31    13    43    1
     32    13    44    1
     33    14    15    1
     34    14    45    1
     35    15    16    1
     36    15    46    1
     37    15    47    1
     38    16    17   ar
     39    16    21   ar
     40    17    18   ar
     41    17    48    1
     42    18    19   ar
     43    18    49    1
     44    19    20   ar
     45    19    50    1
     46    20    21   ar
     47    21    51    1
     48    22    23    1
     49    23    24   ar
     50    23    29   ar
     51    24    25    1
     52    24    26   ar
     53    26    27   ar
     54    26    52    1
     55    27    28   ar
     56    27    53    1
     57    28    29   ar
     58    28    54    1
@<TRIPOS>MOLECULE
CHEMBL2180257_LIG
57 61 1 0 0
SMALL
USER_CHARGES

@<TRIPOS>ATOM
1 C1 215.7962 152.2067 173.6004 C.3 778 ligands_prepared 0.0000
2 C2 217.2002 152.3081 174.0851 C.ar 778 ligands_prepared 0.0000
3 C3 218.2504 152.0415 173.1783 C.ar 778 ligands_prepared 0.0000
4 C4 219.5830 152.1215 173.5552 C.ar 778 ligands_prepared 0.0000
5 C5 219.8190 152.4837 174.8758 C.ar 778 ligands_prepared 0.0000
6 O6 221.0622 152.6307 175.4506 O.3 778 ligands_prepared 0.0000
7 C7 220.8089 153.0241 176.7714 C.2 778 ligands_prepared 0.0000
8 C8 222.0417 153.2398 177.5332 C.2 778 ligands_prepared 0.0000
9 O9 222.0509 153.3764 178.7496 O.2 778 ligands_prepared 0.0000
10 N10 223.2017 153.2742 176.8022 N.am 778 ligands_prepared 0.0000
11 C11 224.5001 153.4427 177.4485 C.3 778 ligands_prepared 0.0000
12 C12 225.0155 154.8973 177.2969 C.3 778 ligands_prepared 0.0000
13 C13 225.2531 155.2428 175.8216 C.3 778 ligands_prepared 0.0000
14 C14 226.2307 154.2329 175.2029 C.3 778 ligands_prepared 0.0000
15 N15 226.7206 153.2652 176.2660 N.4 778 ligands_prepared 1.0000
16 C16 227.3746 154.0528 177.3849 C.3 778 ligands_prepared 0.0000
17 C17 226.3520 154.9874 178.0471 C.3 778 ligands_prepared 0.0000
18 C18 225.5261 152.4674 176.7805 C.3 778 ligands_prepared 0.0000
19 C19 225.9759 151.3807 177.7607 C.3 778 ligands_prepared 0.0000
20 C20 227.2466 150.7302 177.3271 C.ar 778 ligands_prepared 0.0000
21 C21 228.4876 151.2798 177.6510 C.ar 778 ligands_prepared 0.0000
22 C22 229.6493 150.6367 177.2305 C.ar 778 ligands_prepared 0.0000
23 C23 229.5331 149.4503 176.4977 C.ar 778 ligands_prepared 0.0000
24 N24 228.3376 148.9057 176.1908 N.ar 778 ligands_prepared 0.0000
25 C25 227.2177 149.5305 176.5980 C.ar 778 ligands_prepared 0.0000
26 C26 219.4684 153.1092 177.0430 C.2 778 ligands_prepared 0.0000
27 C27 218.8078 153.4700 178.3007 C.3 778 ligands_prepared 0.0000
28 C28 218.7923 152.7588 175.8085 C.ar 778 ligands_prepared 0.0000
29 C29 217.4620 152.6661 175.4037 C.ar 778 ligands_prepared 0.0000
30 H30 215.0547 152.4479 174.3754 H 778 ligands_prepared 0.0000
31 H31 215.5629 151.1904 173.2423 H 778 ligands_prepared 0.0000
32 H32 215.6092 152.8920 172.7578 H 778 ligands_prepared 0.0000
33 H33 217.9989 151.7656 172.1504 H 778 ligands_prepared 0.0000
34 H34 220.3970 151.9197 172.8611 H 778 ligands_prepared 0.0000
35 H35 223.1983 153.1509 175.7930 H 778 ligands_prepared 0.0000
36 H36 224.4019 153.2038 178.5468 H 778 ligands_prepared 0.0000
37 H37 224.2745 155.6045 177.7403 H 778 ligands_prepared 0.0000
38 H38 224.3046 155.2746 175.2526 H 778 ligands_prepared 0.0000
39 H39 225.6560 156.2742 175.7351 H 778 ligands_prepared 0.0000
40 H40 225.7600 153.6546 174.3755 H 778 ligands_prepared 0.0000
41 H41 227.1147 154.7430 174.7533 H 778 ligands_prepared 0.0000
42 H42 227.4198 152.5977 175.8488 H 778 ligands_prepared 0.0000
43 H43 227.8220 153.3467 178.1199 H 778 ligands_prepared 0.0000
44 H44 228.2308 154.6263 176.9575 H 778 ligands_prepared 0.0000
45 H45 226.7243 156.0329 178.0458 H 778 ligands_prepared 0.0000
46 H46 226.2242 154.7370 179.1205 H 778 ligands_prepared 0.0000
47 H47 225.0566 151.9761 175.8794 H 778 ligands_prepared 0.0000
48 H48 225.1634 150.6134 177.8438 H 778 ligands_prepared 0.0000
49 H49 226.0573 151.7802 178.7985 H 778 ligands_prepared 0.0000
50 H50 228.5543 152.2007 178.2368 H 778 ligands_prepared 0.0000
51 H51 230.6307 151.0483 177.4686 H 778 ligands_prepared 0.0000
52 H52 230.4180 148.9039 176.1423 H 778 ligands_prepared 0.0000
53 H53 226.2669 149.0451 176.3317 H 778 ligands_prepared 0.0000
54 H54 219.3111 153.0560 179.1897 H 778 ligands_prepared 0.0000
55 H55 218.7539 154.5662 178.4413 H 778 ligands_prepared 0.0000
56 H56 217.7628 153.1137 178.3450 H 778 ligands_prepared 0.0000
57 H57 216.6567 152.8726 176.1076 H 778 ligands_prepared 0.0000
@<TRIPOS>BOND
      1     1     2    1
      2     1    30    1
      3     1    31    1
      4     1    32    1
      5     2     3   ar
      6     2    29   ar
      7     3     4   ar
      8     3    33    1
      9     4     5   ar
     10     4    34    1
     11     5     6    1
     12     5    28   ar
     13     6     7    1
     14     7     8    1
     15     7    26    2
     16     8     9    2
     17     8    10   am
     18    10    11    1
     19    10    35    1
     20    11    12    1
     21    11    18    1
     22    11    36    1
     23    12    13    1
     24    12    17    1
     25    12    37    1
     26    13    14    1
     27    13    38    1
     28    13    39    1
     29    14    15    1
     30    14    40    1
     31    14    41    1
     32    15    16    1
     33    15    18    1
     34    15    42    1
     35    16    17    1
     36    16    43    1
     37    16    44    1
     38    17    45    1
     39    17    46    1
     40    18    19    1
     41    18    47    1
     42    19    20    1
     43    19    48    1
     44    19    49    1
     45    20    21   ar
     46    20    25   ar
     47    21    22   ar
     48    21    50    1
     49    22    23   ar
     50    22    51    1
     51    23    24   ar
     52    23    52    1
     53    24    25   ar
     54    25    53    1
     55    26    27    1
     56    26    28    1
     57    27    54    1
     58    27    55    1
     59    27    56    1
     60    28    29   ar
     61    29    57    1
@<TRIPOS>MOLECULE
CHEMBL2180258_LIG
54 58 1 0 0
SMALL
USER_CHARGES

@<TRIPOS>ATOM
1 C1 219.1410 153.8696 178.3695 C.3 778 ligands_prepared 0.0000
2 C2 219.6421 153.3115 177.1104 C.2 778 ligands_prepared 0.0000
3 C3 220.9327 153.0052 176.7790 C.2 778 ligands_prepared 0.0000
4 C4 222.2059 153.1494 177.4904 C.2 778 ligands_prepared 0.0000
5 O5 222.2790 153.1183 178.7124 O.2 778 ligands_prepared 0.0000
6 N6 223.3220 153.3341 176.7171 N.am 778 ligands_prepared 0.0000
7 C7 224.6225 153.5202 177.3546 C.3 778 ligands_prepared 0.0000
8 C8 225.1153 154.9797 177.1946 C.3 778 ligands_prepared 0.0000
9 C9 225.3945 155.3092 175.7222 C.3 778 ligands_prepared 0.0000
10 C10 226.4083 154.3125 175.1451 C.3 778 ligands_prepared 0.0000
11 N11 226.8793 153.3681 176.2352 N.4 778 ligands_prepared 1.0000
12 C12 227.4830 154.1822 177.3654 C.3 778 ligands_prepared 0.0000
13 C13 226.4226 155.0969 177.9926 C.3 778 ligands_prepared 0.0000
14 C14 225.6803 152.5565 176.7192 C.3 778 ligands_prepared 0.0000
15 C15 226.1280 151.4908 177.7232 C.3 778 ligands_prepared 0.0000
16 C16 227.3440 150.7621 177.2639 C.ar 778 ligands_prepared 0.0000
17 C17 227.2390 149.5357 176.6021 C.ar 778 ligands_prepared 0.0000
18 C18 228.3959 148.8843 176.1869 C.ar 778 ligands_prepared 0.0000
19 C19 229.6351 149.4786 176.4524 C.ar 778 ligands_prepared 0.0000
20 N20 229.7476 150.6539 177.1018 N.ar 778 ligands_prepared 0.0000
21 C21 228.6250 151.2822 177.5025 C.ar 778 ligands_prepared 0.0000
22 O22 221.0447 152.4616 175.4906 O.3 778 ligands_prepared 0.0000
23 C23 219.7616 152.4509 174.9944 C.ar 778 ligands_prepared 0.0000
24 C24 219.4010 152.0218 173.7209 C.ar 778 ligands_prepared 0.0000
25 C25 218.0509 152.1021 173.4082 C.ar 778 ligands_prepared 0.0000
26 C26 217.1436 152.5949 174.3558 C.ar 778 ligands_prepared 0.0000
27 Cl27 215.4907 152.6810 173.9051 Cl 778 ligands_prepared 0.0000
28 C28 217.4920 153.0235 175.6257 C.ar 778 ligands_prepared 0.0000
29 C29 218.8449 152.9544 175.9509 C.ar 778 ligands_prepared 0.0000
30 H30 219.8124 154.6459 178.7794 H 778 ligands_prepared 0.0000
31 H31 218.1397 154.3189 178.2720 H 778 ligands_prepared 0.0000
32 H32 219.0641 153.0921 179.1544 H 778 ligands_prepared 0.0000
33 H33 223.2849 153.3090 175.6981 H 778 ligands_prepared 0.0000
34 H34 224.5183 153.2874 178.4545 H 778 ligands_prepared 0.0000
35 H35 224.3501 155.6831 177.6034 H 778 ligands_prepared 0.0000
36 H36 224.4619 155.3097 175.1223 H 778 ligands_prepared 0.0000
37 H37 225.7770 156.3481 175.6344 H 778 ligands_prepared 0.0000
38 H38 225.9685 153.7138 174.3129 H 778 ligands_prepared 0.0000
39 H39 227.2972 154.8298 174.7145 H 778 ligands_prepared 0.0000
40 H40 227.6070 152.7097 175.8571 H 778 ligands_prepared 0.0000
41 H41 228.3332 154.7754 176.9506 H 778 ligands_prepared 0.0000
42 H42 227.9314 153.4942 178.1164 H 778 ligands_prepared 0.0000
43 H43 226.7741 156.1483 178.0053 H 778 ligands_prepared 0.0000
44 H44 226.2589 154.8395 179.0596 H 778 ligands_prepared 0.0000
45 H45 225.2400 152.0556 175.8113 H 778 ligands_prepared 0.0000
46 H46 226.2678 151.9314 178.7362 H 778 ligands_prepared 0.0000
47 H47 225.2816 150.7678 177.8735 H 778 ligands_prepared 0.0000
48 H48 226.2569 149.0899 176.4164 H 778 ligands_prepared 0.0000
49 H49 228.3415 147.9278 175.6651 H 778 ligands_prepared 0.0000
50 H50 230.5785 149.0069 176.1401 H 778 ligands_prepared 0.0000
51 H51 228.7702 152.2302 178.0406 H 778 ligands_prepared 0.0000
52 H52 220.1404 151.6467 173.0141 H 778 ligands_prepared 0.0000
53 H53 217.7035 151.7822 172.4196 H 778 ligands_prepared 0.0000
54 H54 216.7614 153.4005 176.3461 H 778 ligands_prepared 0.0000
@<TRIPOS>BOND
      1     1     2    1
      2     1    30    1
      3     1    31    1
      4     1    32    1
      5     2     3    2
      6     2    29    1
      7     3     4    1
      8     3    22    1
      9     4     5    2
     10     4     6   am
     11     6     7    1
     12     6    33    1
     13     7     8    1
     14     7    14    1
     15     7    34    1
     16     8     9    1
     17     8    13    1
     18     8    35    1
     19     9    10    1
     20     9    36    1
     21     9    37    1
     22    10    11    1
     23    10    38    1
     24    10    39    1
     25    11    12    1
     26    11    14    1
     27    11    40    1
     28    12    13    1
     29    12    41    1
     30    12    42    1
     31    13    43    1
     32    13    44    1
     33    14    15    1
     34    14    45    1
     35    15    16    1
     36    15    46    1
     37    15    47    1
     38    16    17   ar
     39    16    21   ar
     40    17    18   ar
     41    17    48    1
     42    18    19   ar
     43    18    49    1
     44    19    20   ar
     45    19    50    1
     46    20    21   ar
     47    21    51    1
     48    22    23    1
     49    23    24   ar
     50    23    29   ar
     51    24    25   ar
     52    24    52    1
     53    25    26   ar
     54    25    53    1
     55    26    27    1
     56    26    28   ar
     57    28    29   ar
     58    28    54    1
@<TRIPOS>MOLECULE
CHEMBL2180259_LIG
54 58 1 0 0
SMALL
USER_CHARGES

@<TRIPOS>ATOM
1 C1 221.8986 160.5981 173.5573 C.3 778 ligands_prepared 0.0000
2 C2 222.4227 161.3209 172.3953 C.2 778 ligands_prepared 0.0000
3 C3 223.7244 161.6252 172.1052 C.2 778 ligands_prepared 0.0000
4 C4 225.0001 161.3300 172.7706 C.2 778 ligands_prepared 0.0000
5 O5 225.9216 162.1327 172.8172 O.2 778 ligands_prepared 0.0000
6 N6 225.0944 160.0922 173.3489 N.am 778 ligands_prepared 0.0000
7 C7 226.2860 159.7072 174.1077 C.3 778 ligands_prepared 0.0000
8 C8 227.5416 159.7863 173.2013 C.3 778 ligands_prepared 0.0000
9 C9 227.4975 158.7145 172.1023 C.3 778 ligands_prepared 0.0000
10 C10 227.3719 157.3197 172.7319 C.3 778 ligands_prepared 0.0000
11 N11 227.3688 157.4379 174.2492 N.4 778 ligands_prepared 1.0000
12 C12 228.6645 158.1040 174.6665 C.3 778 ligands_prepared 0.0000
13 C13 228.7647 159.5212 174.0890 C.3 778 ligands_prepared 0.0000
14 C14 226.1292 158.2423 174.6295 C.3 778 ligands_prepared 0.0000
15 C15 225.7685 158.1167 176.1144 C.3 778 ligands_prepared 0.0000
16 C16 225.6510 156.7450 176.6840 C.ar 778 ligands_prepared 0.0000
17 C17 226.3626 156.3707 177.8281 C.ar 778 ligands_prepared 0.0000
18 C18 226.2220 155.0792 178.3280 C.ar 778 ligands_prepared 0.0000
19 C19 225.3845 154.1842 177.6534 C.ar 778 ligands_prepared 0.0000
20 N20 224.7297 154.5209 176.5246 N.ar 778 ligands_prepared 0.0000
21 C21 224.8677 155.7716 176.0465 C.ar 778 ligands_prepared 0.0000
22 O22 223.8525 162.3296 170.8967 O.3 778 ligands_prepared 0.0000
23 C23 222.5681 162.4710 170.4292 C.ar 778 ligands_prepared 0.0000
24 C24 222.1747 163.1269 169.2734 C.ar 778 ligands_prepared 0.0000
25 Cl25 223.3358 163.8736 168.2824 Cl 778 ligands_prepared 0.0000
26 C26 220.8258 163.1567 168.9560 C.ar 778 ligands_prepared 0.0000
27 C27 219.8930 162.5304 169.7992 C.ar 778 ligands_prepared 0.0000
28 C28 220.2792 161.8793 170.9660 C.ar 778 ligands_prepared 0.0000
29 C29 221.6320 161.8557 171.2969 C.ar 778 ligands_prepared 0.0000
30 H30 221.7384 159.5279 173.3283 H 778 ligands_prepared 0.0000
31 H31 222.5849 160.6321 174.4211 H 778 ligands_prepared 0.0000
32 H32 220.9244 160.9912 173.8936 H 778 ligands_prepared 0.0000
33 H33 224.3116 159.4372 173.3416 H 778 ligands_prepared 0.0000
34 H34 226.4086 160.4146 174.9735 H 778 ligands_prepared 0.0000
35 H35 227.6097 160.8028 172.7428 H 778 ligands_prepared 0.0000
36 H36 228.4171 158.7761 171.4824 H 778 ligands_prepared 0.0000
37 H37 226.6717 158.8987 171.3874 H 778 ligands_prepared 0.0000
38 H38 228.2085 156.6506 172.4262 H 778 ligands_prepared 0.0000
39 H39 226.4385 156.8049 172.4076 H 778 ligands_prepared 0.0000
40 H40 227.3106 156.4798 174.6853 H 778 ligands_prepared 0.0000
41 H41 229.5108 157.4665 174.3079 H 778 ligands_prepared 0.0000
42 H42 228.7459 158.1055 175.7721 H 778 ligands_prepared 0.0000
43 H43 228.8478 160.2766 174.8935 H 778 ligands_prepared 0.0000
44 H44 229.6979 159.6334 173.4985 H 778 ligands_prepared 0.0000
45 H45 225.2713 157.7559 174.0641 H 778 ligands_prepared 0.0000
46 H46 226.5449 158.6910 176.6899 H 778 ligands_prepared 0.0000
47 H47 224.8294 158.6946 176.3085 H 778 ligands_prepared 0.0000
48 H48 227.0258 157.0840 178.3269 H 778 ligands_prepared 0.0000
49 H49 226.7560 154.7680 179.2267 H 778 ligands_prepared 0.0000
50 H50 225.2328 153.1563 178.0132 H 778 ligands_prepared 0.0000
51 H51 224.3343 155.9926 175.1082 H 778 ligands_prepared 0.0000
52 H52 220.4745 163.6679 168.0522 H 778 ligands_prepared 0.0000
53 H53 218.8335 162.5625 169.5230 H 778 ligands_prepared 0.0000
54 H54 219.5405 161.3946 171.6088 H 778 ligands_prepared 0.0000
@<TRIPOS>BOND
      1     1     2    1
      2     1    30    1
      3     1    31    1
      4     1    32    1
      5     2     3    2
      6     2    29    1
      7     3     4    1
      8     3    22    1
      9     4     5    2
     10     4     6   am
     11     6     7    1
     12     6    33    1
     13     7     8    1
     14     7    14    1
     15     7    34    1
     16     8     9    1
     17     8    13    1
     18     8    35    1
     19     9    10    1
     20     9    36    1
     21     9    37    1
     22    10    11    1
     23    10    38    1
     24    10    39    1
     25    11    12    1
     26    11    14    1
     27    11    40    1
     28    12    13    1
     29    12    41    1
     30    12    42    1
     31    13    43    1
     32    13    44    1
     33    14    15    1
     34    14    45    1
     35    15    16    1
     36    15    46    1
     37    15    47    1
     38    16    17   ar
     39    16    21   ar
     40    17    18   ar
     41    17    48    1
     42    18    19   ar
     43    18    49    1
     44    19    20   ar
     45    19    50    1
     46    20    21   ar
     47    21    51    1
     48    22    23    1
     49    23    24   ar
     50    23    29   ar
     51    24    25    1
     52    24    26   ar
     53    26    27   ar
     54    26    52    1
     55    27    28   ar
     56    27    53    1
     57    28    29   ar
     58    28    54    1
@<TRIPOS>MOLECULE
CHEMBL2180260_LIG
55 59 1 0 0
SMALL
USER_CHARGES

@<TRIPOS>ATOM
1 C1 225.9867 163.8760 171.7331 C.3 778 ligands_prepared 0.0000
2 O2 225.8525 162.4528 171.7747 O.3 778 ligands_prepared 0.0000
3 C3 224.6440 161.9768 172.0641 C.2 778 ligands_prepared 0.0000
4 C4 224.4417 161.1965 173.1818 C.2 778 ligands_prepared 0.0000
5 C5 225.3392 160.6475 174.1835 C.2 778 ligands_prepared 0.0000
6 O6 226.1741 161.3310 174.7648 O.2 778 ligands_prepared 0.0000
7 N7 225.2374 159.3031 174.4399 N.am 778 ligands_prepared 0.0000
8 C8 226.1789 158.6696 175.3614 C.3 778 ligands_prepared 0.0000
9 C9 227.6355 158.9454 174.9128 C.3 778 ligands_prepared 0.0000
10 C10 227.9131 158.2891 173.5532 C.3 778 ligands_prepared 0.0000
11 C11 227.6213 156.7838 173.6309 C.3 778 ligands_prepared 0.0000
12 N12 227.2426 156.4035 175.0512 N.4 778 ligands_prepared 1.0000
13 C13 228.3677 156.8028 175.9860 C.3 778 ligands_prepared 0.0000
14 C14 228.5648 158.3248 175.9642 C.3 778 ligands_prepared 0.0000
15 C15 225.9451 157.1213 175.4128 C.3 778 ligands_prepared 0.0000
16 C16 225.4534 156.6899 176.7998 C.3 778 ligands_prepared 0.0000
17 C17 225.4345 155.2106 176.9770 C.ar 778 ligands_prepared 0.0000
18 C18 224.2657 154.4778 176.7579 C.ar 778 ligands_prepared 0.0000
19 C19 224.2838 153.0959 176.9268 C.ar 778 ligands_prepared 0.0000
20 C20 225.4828 152.4805 177.3051 C.ar 778 ligands_prepared 0.0000
21 N21 226.6208 153.1782 177.5007 N.ar 778 ligands_prepared 0.0000
22 C22 226.5995 154.5137 177.3364 C.ar 778 ligands_prepared 0.0000
23 O23 223.0895 160.8348 173.3140 O.3 778 ligands_prepared 0.0000
24 C24 222.4568 161.3895 172.2309 C.ar 778 ligands_prepared 0.0000
25 C25 221.0972 161.2455 171.9639 C.ar 778 ligands_prepared 0.0000
26 C26 220.6304 161.8553 170.8090 C.ar 778 ligands_prepared 0.0000
27 C27 221.5193 162.5700 169.9922 C.ar 778 ligands_prepared 0.0000
28 Cl28 220.8856 163.2997 168.5751 Cl 778 ligands_prepared 0.0000
29 C29 222.8701 162.7240 170.2509 C.ar 778 ligands_prepared 0.0000
30 C30 223.3567 162.1153 171.4069 C.ar 778 ligands_prepared 0.0000
31 H31 225.4232 164.2878 170.8890 H 778 ligands_prepared 0.0000
32 H32 225.6930 164.3305 172.6849 H 778 ligands_prepared 0.0000
33 H33 227.0687 163.9967 171.5722 H 778 ligands_prepared 0.0000
34 H34 224.5125 158.7244 174.0195 H 778 ligands_prepared 0.0000
35 H35 226.0145 159.1047 176.3902 H 778 ligands_prepared 0.0000
36 H36 227.8094 160.0469 174.8494 H 778 ligands_prepared 0.0000
37 H37 227.3169 158.7598 172.7456 H 778 ligands_prepared 0.0000
38 H38 228.9678 158.4665 173.2559 H 778 ligands_prepared 0.0000
39 H39 226.7935 156.4882 172.9459 H 778 ligands_prepared 0.0000
40 H40 228.5062 156.1803 173.3229 H 778 ligands_prepared 0.0000
41 H41 227.0853 155.3648 175.1149 H 778 ligands_prepared 0.0000
42 H42 228.1416 156.4345 177.0115 H 778 ligands_prepared 0.0000
43 H43 229.2942 156.2691 175.6698 H 778 ligands_prepared 0.0000
44 H44 229.6218 158.5750 175.7373 H 778 ligands_prepared 0.0000
45 H45 228.3799 158.7616 176.9662 H 778 ligands_prepared 0.0000
46 H46 225.1849 156.8278 174.6361 H 778 ligands_prepared 0.0000
47 H47 226.0477 157.1831 177.6031 H 778 ligands_prepared 0.0000
48 H48 224.4218 157.1093 176.9476 H 778 ligands_prepared 0.0000
49 H49 223.3446 154.9779 176.4460 H 778 ligands_prepared 0.0000
50 H50 223.3841 152.5018 176.7646 H 778 ligands_prepared 0.0000
51 H51 225.5483 151.3930 177.4533 H 778 ligands_prepared 0.0000
52 H52 227.5541 155.0373 177.4925 H 778 ligands_prepared 0.0000
53 H53 220.4439 160.6820 172.6303 H 778 ligands_prepared 0.0000
54 H54 219.5707 161.7763 170.5413 H 778 ligands_prepared 0.0000
55 H55 223.5261 163.2905 169.5834 H 778 ligands_prepared 0.0000
@<TRIPOS>BOND
      1     1     2    1
      2     1    31    1
      3     1    32    1
      4     1    33    1
      5     2     3    1
      6     3     4    2
      7     3    30    1
      8     4     5    1
      9     4    23    1
     10     5     6    2
     11     5     7   am
     12     7     8    1
     13     7    34    1
     14     8     9    1
     15     8    15    1
     16     8    35    1
     17     9    10    1
     18     9    14    1
     19     9    36    1
     20    10    11    1
     21    10    37    1
     22    10    38    1
     23    11    12    1
     24    11    39    1
     25    11    40    1
     26    12    13    1
     27    12    15    1
     28    12    41    1
     29    13    14    1
     30    13    42    1
     31    13    43    1
     32    14    44    1
     33    14    45    1
     34    15    16    1
     35    15    46    1
     36    16    17    1
     37    16    47    1
     38    16    48    1
     39    17    18   ar
     40    17    22   ar
     41    18    19   ar
     42    18    49    1
     43    19    20   ar
     44    19    50    1
     45    20    21   ar
     46    20    51    1
     47    21    22   ar
     48    22    52    1
     49    23    24    1
     50    24    25   ar
     51    24    30   ar
     52    25    26   ar
     53    25    53    1
     54    26    27   ar
     55    26    54    1
     56    27    28    1
     57    27    29   ar
     58    29    30   ar
     59    29    55    1
@<TRIPOS>MOLECULE
CHEMBL2180261_LIG
51 55 1 0 0
SMALL
USER_CHARGES

@<TRIPOS>ATOM
1 O1 224.5939 151.0154 177.0278 O.2 778 ligands_prepared 0.0000
2 C2 223.8859 151.9931 177.2198 C.2 778 ligands_prepared 0.0000
3 N3 222.6419 151.8832 177.7799 N.am 778 ligands_prepared 0.0000
4 C4 221.8016 153.0718 177.9051 C.3 778 ligands_prepared 0.0000
5 C5 221.5759 153.4701 179.3870 C.3 778 ligands_prepared 0.0000
6 C6 220.6072 152.4891 180.0581 C.3 778 ligands_prepared 0.0000
7 C7 219.2226 152.6143 179.4052 C.3 778 ligands_prepared 0.0000
8 N8 219.3296 153.4226 178.1230 N.4 778 ligands_prepared 1.0000
9 C9 219.6978 154.8507 178.4771 C.3 778 ligands_prepared 0.0000
10 C10 220.9463 154.8712 179.3730 C.3 778 ligands_prepared 0.0000
11 C11 220.4098 152.7910 177.2521 C.3 778 ligands_prepared 0.0000
12 C12 220.3261 153.3308 175.8182 C.3 778 ligands_prepared 0.0000
13 C13 219.1315 152.7462 175.1398 C.ar 778 ligands_prepared 0.0000
14 C14 217.8334 153.0852 175.5292 C.ar 778 ligands_prepared 0.0000
15 C15 216.7526 152.5459 174.8352 C.ar 778 ligands_prepared 0.0000
16 C16 217.0049 151.6770 173.7686 C.ar 778 ligands_prepared 0.0000
17 N17 218.2544 151.3311 173.3958 N.ar 778 ligands_prepared 0.0000
18 C18 219.2962 151.8537 174.0688 C.ar 778 ligands_prepared 0.0000
19 C19 224.3448 153.3562 176.9118 C.2 778 ligands_prepared 0.0000
20 C20 224.0509 154.2690 175.9435 C.2 778 ligands_prepared 0.0000
21 C21 224.7706 155.4711 176.2978 C.ar 778 ligands_prepared 0.0000
22 C22 224.8911 156.7457 175.7500 C.ar 778 ligands_prepared 0.0000
23 C23 225.7161 157.6325 176.4238 C.ar 778 ligands_prepared 0.0000
24 Cl24 225.8979 159.2100 175.7820 Cl 778 ligands_prepared 0.0000
25 C25 226.4199 157.3295 177.5983 C.ar 778 ligands_prepared 0.0000
26 C26 226.2926 156.0614 178.1451 C.ar 778 ligands_prepared 0.0000
27 Br27 227.1977 155.5682 179.7175 Br 778 ligands_prepared 0.0000
28 C28 225.4703 155.1532 177.4927 C.ar 778 ligands_prepared 0.0000
29 O29 225.2155 153.8602 177.8849 O.3 778 ligands_prepared 0.0000
30 H30 222.2744 151.0019 178.1323 H 778 ligands_prepared 0.0000
31 H31 222.3005 153.9341 177.3713 H 778 ligands_prepared 0.0000
32 H32 222.5501 153.4842 179.9304 H 778 ligands_prepared 0.0000
33 H33 220.5392 152.6948 181.1468 H 778 ligands_prepared 0.0000
34 H34 220.9848 151.4494 179.9937 H 778 ligands_prepared 0.0000
35 H35 218.7833 151.6178 179.1701 H 778 ligands_prepared 0.0000
36 H36 218.4963 153.1210 180.0819 H 778 ligands_prepared 0.0000
37 H37 218.4054 153.4085 177.6130 H 778 ligands_prepared 0.0000
38 H38 218.8250 155.3248 178.9847 H 778 ligands_prepared 0.0000
39 H39 219.8555 155.4299 177.5382 H 778 ligands_prepared 0.0000
40 H40 221.6706 155.6299 179.0151 H 778 ligands_prepared 0.0000
41 H41 220.6866 155.1861 180.4035 H 778 ligands_prepared 0.0000
42 H42 220.2069 151.6819 177.2363 H 778 ligands_prepared 0.0000
43 H43 220.2620 154.4452 175.8205 H 778 ligands_prepared 0.0000
44 H44 221.2591 153.1137 175.2498 H 778 ligands_prepared 0.0000
45 H45 217.6669 153.7776 176.3589 H 778 ligands_prepared 0.0000
46 H46 215.7290 152.8046 175.1091 H 778 ligands_prepared 0.0000
47 H47 216.1879 151.2316 173.1816 H 778 ligands_prepared 0.0000
48 H48 220.2957 151.5473 173.7316 H 778 ligands_prepared 0.0000
49 H49 223.4173 154.1553 175.0805 H 778 ligands_prepared 0.0000
50 H50 224.3539 157.0156 174.8360 H 778 ligands_prepared 0.0000
51 H51 227.0561 158.0886 178.0730 H 778 ligands_prepared 0.0000
@<TRIPOS>BOND
      1     1     2    2
      2     2     3   am
      3     2    19    1
      4     3     4    1
      5     3    30    1
      6     4     5    1
      7     4    11    1
      8     4    31    1
      9     5     6    1
     10     5    10    1
     11     5    32    1
     12     6     7    1
     13     6    33    1
     14     6    34    1
     15     7     8    1
     16     7    35    1
     17     7    36    1
     18     8     9    1
     19     8    11    1
     20     8    37    1
     21     9    10    1
     22     9    38    1
     23     9    39    1
     24    10    40    1
     25    10    41    1
     26    11    12    1
     27    11    42    1
     28    12    13    1
     29    12    43    1
     30    12    44    1
     31    13    14   ar
     32    13    18   ar
     33    14    15   ar
     34    14    45    1
     35    15    16   ar
     36    15    46    1
     37    16    17   ar
     38    16    47    1
     39    17    18   ar
     40    18    48    1
     41    19    20    2
     42    19    29    1
     43    20    21    1
     44    20    49    1
     45    21    22   ar
     46    21    28   ar
     47    22    23   ar
     48    22    50    1
     49    23    24    1
     50    23    25   ar
     51    25    26   ar
     52    25    51    1
     53    26    27    1
     54    26    28   ar
     55    28    29    1
@<TRIPOS>MOLECULE
CHEMBL2180262_LIG
65 70 1 0 0
SMALL
USER_CHARGES

@<TRIPOS>ATOM
1 C1 215.7951 154.8102 175.4402 C.3 778 ligands_prepared 0.0000
2 O2 216.9903 154.1534 175.8481 O.3 778 ligands_prepared 0.0000
3 C3 217.6337 153.3889 174.9304 C.ar 778 ligands_prepared 0.0000
4 C4 217.2632 153.2554 173.5920 C.ar 778 ligands_prepared 0.0000
5 C5 218.0209 152.4308 172.7640 C.ar 778 ligands_prepared 0.0000
6 C6 219.1300 151.7523 173.2646 C.ar 778 ligands_prepared 0.0000
7 C7 219.4946 151.8940 174.6025 C.ar 778 ligands_prepared 0.0000
8 C8 218.7532 152.7093 175.4556 C.ar 778 ligands_prepared 0.0000
9 C9 219.1164 152.8791 176.8556 C.ar 778 ligands_prepared 0.0000
10 C10 218.1699 152.8118 177.8794 C.ar 778 ligands_prepared 0.0000
11 C11 218.5102 153.0315 179.2239 C.ar 778 ligands_prepared 0.0000
12 C12 219.8098 153.3342 179.6056 C.ar 778 ligands_prepared 0.0000
13 C13 220.7835 153.3914 178.6104 C.ar 778 ligands_prepared 0.0000
14 C14 222.2013 153.6570 178.5890 C.2 778 ligands_prepared 0.0000
15 C15 222.5881 153.5512 177.2856 C.2 778 ligands_prepared 0.0000
16 C16 223.8970 153.6721 176.6287 C.2 778 ligands_prepared 0.0000
17 O17 224.5515 152.7166 176.2384 O.2 778 ligands_prepared 0.0000
18 N18 224.3663 154.9556 176.5233 N.am 778 ligands_prepared 0.0000
19 C19 225.6743 155.2194 175.9249 C.3 778 ligands_prepared 0.0000
20 C20 226.7608 154.3332 176.5865 C.3 778 ligands_prepared 0.0000
21 C21 226.9614 154.7138 178.0607 C.3 778 ligands_prepared 0.0000
22 C22 227.2794 156.2126 178.1797 C.3 778 ligands_prepared 0.0000
23 N23 227.4193 156.8185 176.7903 N.4 778 ligands_prepared 1.0000
24 C24 228.5039 156.0448 176.0667 C.3 778 ligands_prepared 0.0000
25 C25 228.0693 154.5935 175.8282 C.3 778 ligands_prepared 0.0000
26 C26 226.0508 156.7221 176.1229 C.3 778 ligands_prepared 0.0000
27 C27 225.9273 157.5651 174.8482 C.3 778 ligands_prepared 0.0000
28 C28 226.2668 159.0107 174.9508 C.ar 778 ligands_prepared 0.0000
29 C29 227.5706 159.4084 175.2681 C.ar 778 ligands_prepared 0.0000
30 C30 227.8703 160.7638 175.3508 C.ar 778 ligands_prepared 0.0000
31 C31 226.8500 161.6937 175.1196 C.ar 778 ligands_prepared 0.0000
32 N32 225.5838 161.3214 174.8516 N.ar 778 ligands_prepared 0.0000
33 C33 225.2946 160.0067 174.7826 C.ar 778 ligands_prepared 0.0000
34 O34 221.5253 153.2419 176.4334 O.3 778 ligands_prepared 0.0000
35 C35 220.4214 153.1512 177.2621 C.ar 778 ligands_prepared 0.0000
36 H36 215.0074 154.0838 175.2149 H 778 ligands_prepared 0.0000
37 H37 215.5365 155.3935 176.3364 H 778 ligands_prepared 0.0000
38 H38 215.9783 155.4774 174.5928 H 778 ligands_prepared 0.0000
39 H39 216.4011 153.7836 173.1931 H 778 ligands_prepared 0.0000
40 H40 217.7441 152.3218 171.7123 H 778 ligands_prepared 0.0000
41 H41 219.7177 151.1109 172.6086 H 778 ligands_prepared 0.0000
42 H42 220.3694 151.3635 174.9889 H 778 ligands_prepared 0.0000
43 H43 217.1284 152.5860 177.6279 H 778 ligands_prepared 0.0000
44 H44 217.7259 152.9671 179.9815 H 778 ligands_prepared 0.0000
45 H45 220.0685 153.5281 180.6458 H 778 ligands_prepared 0.0000
46 H46 222.8053 153.8852 179.4494 H 778 ligands_prepared 0.0000
47 H47 223.7988 155.7625 176.7836 H 778 ligands_prepared 0.0000
48 H48 225.6178 154.9773 174.8265 H 778 ligands_prepared 0.0000
49 H49 226.4741 153.2577 176.5035 H 778 ligands_prepared 0.0000
50 H50 227.7829 154.1076 178.4960 H 778 ligands_prepared 0.0000
51 H51 226.0760 154.4503 178.6717 H 778 ligands_prepared 0.0000
52 H52 226.4817 156.7599 178.7337 H 778 ligands_prepared 0.0000
53 H53 228.2219 156.3891 178.7474 H 778 ligands_prepared 0.0000
54 H54 227.6978 157.8330 176.8638 H 778 ligands_prepared 0.0000
55 H55 229.4337 156.0902 176.6857 H 778 ligands_prepared 0.0000
56 H56 228.7662 156.5569 175.1195 H 778 ligands_prepared 0.0000
57 H57 227.9496 154.3835 174.7468 H 778 ligands_prepared 0.0000
58 H58 228.8607 153.8916 176.1639 H 778 ligands_prepared 0.0000
59 H59 225.3219 157.1755 176.8703 H 778 ligands_prepared 0.0000
60 H60 226.5813 157.0810 174.0722 H 778 ligands_prepared 0.0000
61 H61 224.8969 157.4395 174.4295 H 778 ligands_prepared 0.0000
62 H62 228.3482 158.6589 175.4512 H 778 ligands_prepared 0.0000
63 H63 228.8795 161.0979 175.5922 H 778 ligands_prepared 0.0000
64 H64 227.0408 162.7763 175.1527 H 778 ligands_prepared 0.0000
65 H65 224.2384 159.7581 174.5945 H 778 ligands_prepared 0.0000
@<TRIPOS>BOND
      1     1     2    1
      2     1    36    1
      3     1    37    1
      4     1    38    1
      5     2     3    1
      6     3     4   ar
      7     3     8   ar
      8     4     5   ar
      9     4    39    1
     10     5     6   ar
     11     5    40    1
     12     6     7   ar
     13     6    41    1
     14     7     8   ar
     15     7    42    1
     16     8     9    1
     17     9    10   ar
     18     9    35   ar
     19    10    11   ar
     20    10    43    1
     21    11    12   ar
     22    11    44    1
     23    12    13   ar
     24    12    45    1
     25    13    14    1
     26    13    35   ar
     27    14    15    2
     28    14    46    1
     29    15    16    1
     30    15    34    1
     31    16    17    2
     32    16    18   am
     33    18    19    1
     34    18    47    1
     35    19    20    1
     36    19    26    1
     37    19    48    1
     38    20    21    1
     39    20    25    1
     40    20    49    1
     41    21    22    1
     42    21    50    1
     43    21    51    1
     44    22    23    1
     45    22    52    1
     46    22    53    1
     47    23    24    1
     48    23    26    1
     49    23    54    1
     50    24    25    1
     51    24    55    1
     52    24    56    1
     53    25    57    1
     54    25    58    1
     55    26    27    1
     56    26    59    1
     57    27    28    1
     58    27    60    1
     59    27    61    1
     60    28    29   ar
     61    28    33   ar
     62    29    30   ar
     63    29    62    1
     64    30    31   ar
     65    30    63    1
     66    31    32   ar
     67    31    64    1
     68    32    33   ar
     69    33    65    1
     70    34    35    1
@<TRIPOS>MOLECULE
CHEMBL2180263_LIG
60 65 1 0 0
SMALL
USER_CHARGES

@<TRIPOS>ATOM
1 O1 224.3455 152.8640 176.4830 O.2 778 ligands_prepared 0.0000
2 C2 223.7481 153.8446 176.9004 C.2 778 ligands_prepared 0.0000
3 N3 224.2245 155.1125 176.6968 N.am 778 ligands_prepared 0.0000
4 C4 225.4897 155.3174 175.9967 C.3 778 ligands_prepared 0.0000
5 C5 226.6038 154.4301 176.6058 C.3 778 ligands_prepared 0.0000
6 C6 227.8601 154.6426 175.7490 C.3 778 ligands_prepared 0.0000
7 C7 228.3295 156.0969 175.8905 C.3 778 ligands_prepared 0.0000
8 N8 227.3275 156.8998 176.6989 N.4 778 ligands_prepared 1.0000
9 C9 227.2708 156.3341 178.1062 C.3 778 ligands_prepared 0.0000
10 C10 226.9107 154.8433 178.0526 C.3 778 ligands_prepared 0.0000
11 C11 225.9270 156.8175 176.0930 C.3 778 ligands_prepared 0.0000
12 C12 225.8953 157.4877 174.7151 C.3 778 ligands_prepared 0.0000
13 C13 226.2664 158.9295 174.7896 C.ar 778 ligands_prepared 0.0000
14 C14 227.6037 159.3244 174.8803 C.ar 778 ligands_prepared 0.0000
15 C15 227.9096 160.6804 174.9433 C.ar 778 ligands_prepared 0.0000
16 C16 226.8618 161.6091 174.9160 C.ar 778 ligands_prepared 0.0000
17 N17 225.5686 161.2372 174.8458 N.ar 778 ligands_prepared 0.0000
18 C18 225.2758 159.9234 174.7883 C.ar 778 ligands_prepared 0.0000
19 C19 222.5024 153.7487 177.6793 C.2 778 ligands_prepared 0.0000
20 C20 222.2075 153.8091 179.0079 C.2 778 ligands_prepared 0.0000
21 C21 220.7911 153.5411 179.1171 C.ar 778 ligands_prepared 0.0000
22 C22 219.8846 153.4323 180.1700 C.ar 778 ligands_prepared 0.0000
23 C23 218.5603 153.1429 179.8618 C.ar 778 ligands_prepared 0.0000
24 C24 218.1270 152.9857 178.5364 C.ar 778 ligands_prepared 0.0000
25 C25 219.0087 153.0912 177.4580 C.ar 778 ligands_prepared 0.0000
26 C26 218.5696 152.9519 176.0674 C.ar 778 ligands_prepared 0.0000
27 C27 217.3085 153.4021 175.6445 C.ar 778 ligands_prepared 0.0000
28 C28 216.9394 153.2141 174.3144 C.ar 778 ligands_prepared 0.0000
29 C29 217.8318 152.6046 173.4372 C.ar 778 ligands_prepared 0.0000
30 C30 219.0781 152.1997 173.9285 C.ar 778 ligands_prepared 0.0000
31 N31 219.4421 152.3617 175.2134 N.ar 778 ligands_prepared 0.0000
32 C32 220.3364 153.3549 177.7875 C.ar 778 ligands_prepared 0.0000
33 O33 221.3777 153.4769 176.8924 O.3 778 ligands_prepared 0.0000
34 H34 223.7134 155.9400 177.0069 H 778 ligands_prepared 0.0000
35 H35 225.3505 155.0365 174.9104 H 778 ligands_prepared 0.0000
36 H36 226.2921 153.3587 176.5739 H 778 ligands_prepared 0.0000
37 H37 228.6626 153.9432 176.0604 H 778 ligands_prepared 0.0000
38 H38 227.6635 154.3914 174.6862 H 778 ligands_prepared 0.0000
39 H39 229.3195 156.1534 176.4047 H 778 ligands_prepared 0.0000
40 H40 228.4753 156.5802 174.8998 H 778 ligands_prepared 0.0000
41 H41 227.6299 157.9076 176.7244 H 778 ligands_prepared 0.0000
42 H42 226.5285 156.9173 178.7003 H 778 ligands_prepared 0.0000
43 H43 228.2577 156.5013 178.5984 H 778 ligands_prepared 0.0000
44 H44 227.7432 154.2268 178.4509 H 778 ligands_prepared 0.0000
45 H45 226.0589 154.6227 178.7269 H 778 ligands_prepared 0.0000
46 H46 225.2389 157.3714 176.7927 H 778 ligands_prepared 0.0000
47 H47 226.5308 156.9350 173.9859 H 778 ligands_prepared 0.0000
48 H48 224.8633 157.3771 174.2892 H 778 ligands_prepared 0.0000
49 H49 228.4020 158.5759 174.9031 H 778 ligands_prepared 0.0000
50 H50 228.9443 161.0165 175.0192 H 778 ligands_prepared 0.0000
51 H51 227.0521 162.6922 174.9577 H 778 ligands_prepared 0.0000
52 H52 224.2079 159.6693 174.7474 H 778 ligands_prepared 0.0000
53 H53 222.8663 154.0068 179.8349 H 778 ligands_prepared 0.0000
54 H54 220.2132 153.5703 181.2008 H 778 ligands_prepared 0.0000
55 H55 217.8318 153.0374 180.6688 H 778 ligands_prepared 0.0000
56 H56 217.0690 152.7765 178.3412 H 778 ligands_prepared 0.0000
57 H57 216.6308 153.8934 176.3418 H 778 ligands_prepared 0.0000
58 H58 215.9574 153.5455 173.9650 H 778 ligands_prepared 0.0000
59 H59 217.5722 152.4427 172.3918 H 778 ligands_prepared 0.0000
60 H60 219.8249 151.7233 173.2768 H 778 ligands_prepared 0.0000
@<TRIPOS>BOND
      1     1     2    2
      2     2     3   am
      3     2    19    1
      4     3     4    1
      5     3    34    1
      6     4     5    1
      7     4    11    1
      8     4    35    1
      9     5     6    1
     10     5    10    1
     11     5    36    1
     12     6     7    1
     13     6    37    1
     14     6    38    1
     15     7     8    1
     16     7    39    1
     17     7    40    1
     18     8     9    1
     19     8    11    1
     20     8    41    1
     21     9    10    1
     22     9    42    1
     23     9    43    1
     24    10    44    1
     25    10    45    1
     26    11    12    1
     27    11    46    1
     28    12    13    1
     29    12    47    1
     30    12    48    1
     31    13    14   ar
     32    13    18   ar
     33    14    15   ar
     34    14    49    1
     35    15    16   ar
     36    15    50    1
     37    16    17   ar
     38    16    51    1
     39    17    18   ar
     40    18    52    1
     41    19    20    2
     42    19    33    1
     43    20    21    1
     44    20    53    1
     45    21    22   ar
     46    21    32   ar
     47    22    23   ar
     48    22    54    1
     49    23    24   ar
     50    23    55    1
     51    24    25   ar
     52    24    56    1
     53    25    26    1
     54    25    32   ar
     55    26    27   ar
     56    26    31   ar
     57    27    28   ar
     58    27    57    1
     59    28    29   ar
     60    28    58    1
     61    29    30   ar
     62    29    59    1
     63    30    31   ar
     64    30    60    1
     65    32    33    1
@<TRIPOS>MOLECULE
CHEMBL2180264_LIG
51 55 1 0 0
SMALL
USER_CHARGES

@<TRIPOS>ATOM
1 O1 223.9758 151.6522 177.4722 O.2 778 ligands_prepared 0.0000
2 C2 223.8669 152.8410 177.2038 C.2 778 ligands_prepared 0.0000
3 N3 222.6696 153.4896 177.3553 N.am 778 ligands_prepared 0.0000
4 C4 221.5197 152.7547 177.8830 C.3 778 ligands_prepared 0.0000
5 C5 221.3066 153.0693 179.3844 C.3 778 ligands_prepared 0.0000
6 C6 220.1351 152.2001 179.8659 C.3 778 ligands_prepared 0.0000
7 C7 218.8557 152.6114 179.1241 C.3 778 ligands_prepared 0.0000
8 N8 219.1707 153.6513 178.0667 N.4 778 ligands_prepared 1.0000
9 C9 219.7119 154.8993 178.7422 C.3 778 ligands_prepared 0.0000
10 C10 220.9426 154.5462 179.5881 C.3 778 ligands_prepared 0.0000
11 C11 220.2249 153.1371 177.0898 C.3 778 ligands_prepared 0.0000
12 C12 219.6991 151.9379 176.2932 C.3 778 ligands_prepared 0.0000
13 C13 218.7141 152.3302 175.2455 C.ar 778 ligands_prepared 0.0000
14 C14 217.6026 153.1135 175.5638 C.ar 778 ligands_prepared 0.0000
15 C15 216.7027 153.4612 174.5601 C.ar 778 ligands_prepared 0.0000
16 C16 216.9372 153.0013 173.2593 C.ar 778 ligands_prepared 0.0000
17 N17 217.9972 152.2282 172.9474 N.ar 778 ligands_prepared 0.0000
18 C18 218.8663 151.8961 173.9204 C.ar 778 ligands_prepared 0.0000
19 C19 225.0039 153.6515 176.7435 C.2 778 ligands_prepared 0.0000
20 C20 226.3032 153.3938 176.4186 C.2 778 ligands_prepared 0.0000
21 C21 226.8596 154.6459 175.9575 C.ar 778 ligands_prepared 0.0000
22 C22 228.1003 155.0655 175.4793 C.ar 778 ligands_prepared 0.0000
23 C23 228.2429 156.3993 175.1205 C.ar 778 ligands_prepared 0.0000
24 C24 227.1788 157.3135 175.2311 C.ar 778 ligands_prepared 0.0000
25 C25 225.9308 156.9266 175.7035 C.ar 778 ligands_prepared 0.0000
26 C26 225.8067 155.5881 176.0562 C.ar 778 ligands_prepared 0.0000
27 O27 224.6592 154.9915 176.5362 O.3 778 ligands_prepared 0.0000
28 H28 222.5313 154.4614 177.0792 H 778 ligands_prepared 0.0000
29 H29 221.7183 151.6492 177.7658 H 778 ligands_prepared 0.0000
30 H30 222.2310 152.8193 179.9588 H 778 ligands_prepared 0.0000
31 H31 219.9973 152.3096 180.9612 H 778 ligands_prepared 0.0000
32 H32 220.3503 151.1230 179.7153 H 778 ligands_prepared 0.0000
33 H33 218.0987 153.0404 179.8243 H 778 ligands_prepared 0.0000
34 H34 218.3628 151.7362 178.6453 H 778 ligands_prepared 0.0000
35 H35 218.2968 153.8840 177.5283 H 778 ligands_prepared 0.0000
36 H36 218.9024 155.3477 179.3637 H 778 ligands_prepared 0.0000
37 H37 219.9552 155.6571 177.9610 H 778 ligands_prepared 0.0000
38 H38 220.7472 154.7424 180.6632 H 778 ligands_prepared 0.0000
39 H39 221.7928 155.2124 179.3394 H 778 ligands_prepared 0.0000
40 H40 220.4493 153.9857 176.3826 H 778 ligands_prepared 0.0000
41 H41 219.2749 151.1607 176.9698 H 778 ligands_prepared 0.0000
42 H42 220.5786 151.4170 175.8278 H 778 ligands_prepared 0.0000
43 H43 217.4291 153.4440 176.5921 H 778 ligands_prepared 0.0000
44 H44 215.8303 154.0779 174.7819 H 778 ligands_prepared 0.0000
45 H45 216.2556 153.2471 172.4318 H 778 ligands_prepared 0.0000
46 H46 219.7086 151.2546 173.6213 H 778 ligands_prepared 0.0000
47 H47 226.8368 152.4594 176.4719 H 778 ligands_prepared 0.0000
48 H48 228.9274 154.3605 175.3903 H 778 ligands_prepared 0.0000
49 H49 229.2048 156.7541 174.7422 H 778 ligands_prepared 0.0000
50 H50 227.3434 158.3540 174.9341 H 778 ligands_prepared 0.0000
51 H51 225.1022 157.6239 175.7936 H 778 ligands_prepared 0.0000
@<TRIPOS>BOND
      1     1     2    2
      2     2     3   am
      3     2    19    1
      4     3     4    1
      5     3    28    1
      6     4     5    1
      7     4    11    1
      8     4    29    1
      9     5     6    1
     10     5    10    1
     11     5    30    1
     12     6     7    1
     13     6    31    1
     14     6    32    1
     15     7     8    1
     16     7    33    1
     17     7    34    1
     18     8     9    1
     19     8    11    1
     20     8    35    1
     21     9    10    1
     22     9    36    1
     23     9    37    1
     24    10    38    1
     25    10    39    1
     26    11    12    1
     27    11    40    1
     28    12    13    1
     29    12    41    1
     30    12    42    1
     31    13    14   ar
     32    13    18   ar
     33    14    15   ar
     34    14    43    1
     35    15    16   ar
     36    15    44    1
     37    16    17   ar
     38    16    45    1
     39    17    18   ar
     40    18    46    1
     41    19    20    2
     42    19    27    1
     43    20    21    1
     44    20    47    1
     45    21    22   ar
     46    21    26   ar
     47    22    23   ar
     48    22    48    1
     49    23    24   ar
     50    23    49    1
     51    24    25   ar
     52    24    50    1
     53    25    26   ar
     54    25    51    1
     55    26    27    1
@<TRIPOS>MOLECULE
CHEMBL2180265_LIG
51 55 1 0 0
SMALL
USER_CHARGES

@<TRIPOS>ATOM
1 O1 224.0544 151.6845 177.4943 O.2 778 ligands_prepared 0.0000
2 C2 223.8219 152.8547 177.2175 C.2 778 ligands_prepared 0.0000
3 N3 222.5982 153.4187 177.4709 N.am 778 ligands_prepared 0.0000
4 C4 221.5894 152.6748 178.2194 C.3 778 ligands_prepared 0.0000
5 C5 221.3620 153.3334 179.6059 C.3 778 ligands_prepared 0.0000
6 C6 220.4048 152.4279 180.3930 C.3 778 ligands_prepared 0.0000
7 C7 219.0550 152.3529 179.6645 C.3 778 ligands_prepared 0.0000
8 N8 219.1136 153.1463 178.3702 N.4 778 ligands_prepared 1.0000
9 C9 219.3968 154.5987 178.6946 C.3 778 ligands_prepared 0.0000
10 C10 220.7226 154.7195 179.4558 C.3 778 ligands_prepared 0.0000
11 C11 220.2100 152.5570 177.4820 C.3 778 ligands_prepared 0.0000
12 C12 220.1817 153.1941 176.0917 C.3 778 ligands_prepared 0.0000
13 C13 219.0532 152.6800 175.2614 C.ar 778 ligands_prepared 0.0000
14 C14 217.7293 152.9868 175.5854 C.ar 778 ligands_prepared 0.0000
15 C15 216.7008 152.5005 174.7838 C.ar 778 ligands_prepared 0.0000
16 C16 217.0280 151.7191 173.6698 C.ar 778 ligands_prepared 0.0000
17 N17 218.3036 151.4251 173.3435 N.ar 778 ligands_prepared 0.0000
18 C18 219.2962 151.8982 174.1205 C.ar 778 ligands_prepared 0.0000
19 C19 224.8521 153.7132 176.6232 C.2 778 ligands_prepared 0.0000
20 C20 226.1229 153.4593 176.1963 C.2 778 ligands_prepared 0.0000
21 C21 226.6685 154.7295 175.7749 C.ar 778 ligands_prepared 0.0000
22 C22 227.8874 155.1647 175.2540 C.ar 778 ligands_prepared 0.0000
23 C23 228.0412 156.5213 174.9993 C.ar 778 ligands_prepared 0.0000
24 C24 227.0069 157.4429 175.2472 C.ar 778 ligands_prepared 0.0000
25 C25 225.7746 157.0385 175.7504 C.ar 778 ligands_prepared 0.0000
26 C26 225.6412 155.6808 175.9988 C.ar 778 ligands_prepared 0.0000
27 O27 224.5131 155.0679 176.5089 O.3 778 ligands_prepared 0.0000
28 H28 222.3852 154.3820 177.2167 H 778 ligands_prepared 0.0000
29 H29 221.9686 151.6197 178.3777 H 778 ligands_prepared 0.0000
30 H30 222.3377 153.4216 180.1429 H 778 ligands_prepared 0.0000
31 H31 220.2706 152.8174 181.4230 H 778 ligands_prepared 0.0000
32 H32 220.8376 151.4154 180.5262 H 778 ligands_prepared 0.0000
33 H33 218.2303 152.7637 180.2936 H 778 ligands_prepared 0.0000
34 H34 218.7710 151.3004 179.4327 H 778 ligands_prepared 0.0000
35 H35 218.1935 153.0710 177.8644 H 778 ligands_prepared 0.0000
36 H36 218.5448 154.9991 179.2960 H 778 ligands_prepared 0.0000
37 H37 219.4074 155.1903 177.7519 H 778 ligands_prepared 0.0000
38 H38 220.5533 155.1678 180.4587 H 778 ligands_prepared 0.0000
39 H39 221.4026 155.4322 178.9496 H 778 ligands_prepared 0.0000
40 H40 219.9715 151.4587 177.3802 H 778 ligands_prepared 0.0000
41 H41 220.1600 154.3068 176.1539 H 778 ligands_prepared 0.0000
42 H42 221.1563 152.9815 175.5813 H 778 ligands_prepared 0.0000
43 H43 217.5000 153.6085 176.4569 H 778 ligands_prepared 0.0000
44 H44 215.6588 152.7235 175.0185 H 778 ligands_prepared 0.0000
45 H45 216.2518 151.3112 173.0056 H 778 ligands_prepared 0.0000
46 H46 220.3187 151.6387 173.8099 H 778 ligands_prepared 0.0000
47 H47 226.6410 152.5153 176.1756 H 778 ligands_prepared 0.0000
48 H48 228.6911 154.4552 175.0537 H 778 ligands_prepared 0.0000
49 H49 228.9871 156.8908 174.5973 H 778 ligands_prepared 0.0000
50 H50 227.1798 158.5033 175.0378 H 778 ligands_prepared 0.0000
51 H51 224.9642 157.7403 175.9397 H 778 ligands_prepared 0.0000
@<TRIPOS>BOND
      1     1     2    2
      2     2     3   am
      3     2    19    1
      4     3     4    1
      5     3    28    1
      6     4     5    1
      7     4    11    1
      8     4    29    1
      9     5     6    1
     10     5    10    1
     11     5    30    1
     12     6     7    1
     13     6    31    1
     14     6    32    1
     15     7     8    1
     16     7    33    1
     17     7    34    1
     18     8     9    1
     19     8    11    1
     20     8    35    1
     21     9    10    1
     22     9    36    1
     23     9    37    1
     24    10    38    1
     25    10    39    1
     26    11    12    1
     27    11    40    1
     28    12    13    1
     29    12    41    1
     30    12    42    1
     31    13    14   ar
     32    13    18   ar
     33    14    15   ar
     34    14    43    1
     35    15    16   ar
     36    15    44    1
     37    16    17   ar
     38    16    45    1
     39    17    18   ar
     40    18    46    1
     41    19    20    2
     42    19    27    1
     43    20    21    1
     44    20    47    1
     45    21    22   ar
     46    21    26   ar
     47    22    23   ar
     48    22    48    1
     49    23    24   ar
     50    23    49    1
     51    24    25   ar
     52    24    50    1
     53    25    26   ar
     54    25    51    1
     55    26    27    1
@<TRIPOS>MOLECULE
CHEMBL225851_LIG
52 55 1 0 0
SMALL
USER_CHARGES

@<TRIPOS>ATOM
1 C1 226.7691 162.9232 174.1757 C.3 778 ligands_prepared 0.0000
2 O2 227.5663 162.8649 175.3540 O.3 778 ligands_prepared 0.0000
3 C3 227.5317 161.7173 176.0716 C.ar 778 ligands_prepared 0.0000
4 C4 226.7409 160.6070 175.7923 C.ar 778 ligands_prepared 0.0000
5 C5 226.8165 159.4813 176.6097 C.ar 778 ligands_prepared 0.0000
6 C6 227.6540 159.4543 177.7393 C.ar 778 ligands_prepared 0.0000
7 C7 228.4572 160.5675 178.0042 C.ar 778 ligands_prepared 0.0000
8 C8 228.4002 161.6878 177.1829 C.ar 778 ligands_prepared 0.0000
9 O9 229.2936 162.6747 177.4871 O.3 778 ligands_prepared 0.0000
10 C10 229.6563 162.7719 178.8630 C.3 778 ligands_prepared 0.0000
11 C11 227.5974 158.2830 178.6170 C.ar 778 ligands_prepared 0.0000
12 C12 227.9082 158.3208 179.9753 C.ar 778 ligands_prepared 0.0000
13 O13 228.3718 159.4608 180.5823 O.3 778 ligands_prepared 0.0000
14 C14 227.3739 160.1057 181.3829 C.3 778 ligands_prepared 0.0000
15 C15 227.6203 157.2170 180.8041 C.ar 778 ligands_prepared 0.0000
16 O16 227.8625 157.2396 182.1356 O.3 778 ligands_prepared 0.0000
17 C17 227.0424 156.0629 180.2958 C.ar 778 ligands_prepared 0.0000
18 C18 226.7626 156.0047 178.9277 C.ar 778 ligands_prepared 0.0000
19 C19 227.0861 157.0716 178.0932 C.ar 778 ligands_prepared 0.0000
20 C20 226.8853 157.0464 176.5976 C.3 778 ligands_prepared 0.0000
21 C21 226.0133 158.2663 176.2533 C.3 778 ligands_prepared 0.0000
22 N22 226.3489 155.7126 176.0787 N.4 778 ligands_prepared 1.0000
23 C23 226.8667 155.5096 174.6781 C.3 778 ligands_prepared 0.0000
24 C24 224.8489 155.7031 176.0132 C.3 778 ligands_prepared 0.0000
25 C25 226.6044 154.3995 177.0297 C.3 778 ligands_prepared 0.0000
26 C26 226.0576 154.8038 178.3945 C.3 778 ligands_prepared 0.0000
27 H27 225.7061 162.7956 174.4084 H 778 ligands_prepared 0.0000
28 H28 226.9665 163.9439 173.8149 H 778 ligands_prepared 0.0000
29 H29 227.1006 162.1850 173.4389 H 778 ligands_prepared 0.0000
30 H30 226.0706 160.6025 174.9306 H 778 ligands_prepared 0.0000
31 H31 229.1441 160.5830 178.8512 H 778 ligands_prepared 0.0000
32 H32 228.9357 163.4154 179.3806 H 778 ligands_prepared 0.0000
33 H33 230.6479 163.2459 178.8207 H 778 ligands_prepared 0.0000
34 H34 229.7183 161.7945 179.3501 H 778 ligands_prepared 0.0000
35 H35 226.9609 159.4212 182.1316 H 778 ligands_prepared 0.0000
36 H36 226.5707 160.5088 180.7579 H 778 ligands_prepared 0.0000
37 H37 227.9401 160.9163 181.8633 H 778 ligands_prepared 0.0000
38 H38 227.5117 156.4139 182.5883 H 778 ligands_prepared 0.0000
39 H39 226.8028 155.2292 180.9559 H 778 ligands_prepared 0.0000
40 H40 227.8953 157.1868 176.0943 H 778 ligands_prepared 0.0000
41 H41 225.0504 158.2546 176.8147 H 778 ligands_prepared 0.0000
42 H42 225.7242 158.2934 175.1815 H 778 ligands_prepared 0.0000
43 H43 226.6418 154.4917 174.3119 H 778 ligands_prepared 0.0000
44 H44 226.4003 156.2245 173.9738 H 778 ligands_prepared 0.0000
45 H45 227.9613 155.6558 174.6235 H 778 ligands_prepared 0.0000
46 H46 224.4824 154.7995 175.4875 H 778 ligands_prepared 0.0000
47 H47 224.3910 155.6920 177.0204 H 778 ligands_prepared 0.0000
48 H48 224.4608 156.5797 175.4621 H 778 ligands_prepared 0.0000
49 H49 226.0764 153.4946 176.6429 H 778 ligands_prepared 0.0000
50 H50 227.6829 154.1216 177.1034 H 778 ligands_prepared 0.0000
51 H51 224.9602 155.0000 178.2958 H 778 ligands_prepared 0.0000
52 H52 226.1023 153.9613 179.1238 H 778 ligands_prepared 0.0000
@<TRIPOS>BOND
      1     1     2    1
      2     1    27    1
      3     1    28    1
      4     1    29    1
      5     2     3    1
      6     3     4   ar
      7     3     8   ar
      8     4     5   ar
      9     4    30    1
     10     5     6   ar
     11     5    21    1
     12     6     7   ar
     13     6    11    1
     14     7     8   ar
     15     7    31    1
     16     8     9    1
     17     9    10    1
     18    10    32    1
     19    10    33    1
     20    10    34    1
     21    11    12   ar
     22    11    19   ar
     23    12    13    1
     24    12    15   ar
     25    13    14    1
     26    14    35    1
     27    14    36    1
     28    14    37    1
     29    15    16    1
     30    15    17   ar
     31    16    38    1
     32    17    18   ar
     33    17    39    1
     34    18    19   ar
     35    18    26    1
     36    19    20    1
     37    20    21    1
     38    20    22    1
     39    20    40    1
     40    21    41    1
     41    21    42    1
     42    22    23    1
     43    22    24    1
     44    22    25    1
     45    23    43    1
     46    23    44    1
     47    23    45    1
     48    24    46    1
     49    24    47    1
     50    24    48    1
     51    25    26    1
     52    25    49    1
     53    25    50    1
     54    26    51    1
     55    26    52    1
@<TRIPOS>MOLECULE
CHEMBL225852_LIG
55 58 1 0 0
SMALL
USER_CHARGES

@<TRIPOS>ATOM
1 C1 228.0953 163.6771 175.0760 C.3 778 ligands_prepared 0.0000
2 O2 227.0606 162.7723 174.7017 O.3 778 ligands_prepared 0.0000
3 C3 226.9725 161.6121 175.4009 C.ar 778 ligands_prepared 0.0000
4 C4 227.7524 161.2610 176.4928 C.ar 778 ligands_prepared 0.0000
5 C5 227.5556 160.0240 177.1106 C.ar 778 ligands_prepared 0.0000
6 C6 226.6101 159.1172 176.6122 C.ar 778 ligands_prepared 0.0000
7 C7 225.7895 159.4939 175.5418 C.ar 778 ligands_prepared 0.0000
8 C8 225.9678 160.7260 174.9350 C.ar 778 ligands_prepared 0.0000
9 O9 225.2363 161.2121 173.8932 O.3 778 ligands_prepared 0.0000
10 C10 224.2770 160.3307 173.3199 C.3 778 ligands_prepared 0.0000
11 C11 226.5360 157.7907 177.2262 C.ar 778 ligands_prepared 0.0000
12 C12 226.1320 156.6588 176.5266 C.ar 778 ligands_prepared 0.0000
13 O13 225.6029 156.7632 175.2684 O.3 778 ligands_prepared 0.0000
14 C14 226.6052 156.9035 174.2595 C.3 778 ligands_prepared 0.0000
15 C15 226.1914 155.3802 177.1331 C.ar 778 ligands_prepared 0.0000
16 O16 225.7519 154.3765 176.3387 O.3 778 ligands_prepared 0.0000
17 C17 225.6326 153.0871 176.9347 C.3 778 ligands_prepared 0.0000
18 C18 226.6991 155.2378 178.4156 C.ar 778 ligands_prepared 0.0000
19 C19 227.1280 156.3728 179.1122 C.ar 778 ligands_prepared 0.0000
20 C20 226.9913 157.6368 178.5557 C.ar 778 ligands_prepared 0.0000
21 C21 227.3490 158.9164 179.2696 C.3 778 ligands_prepared 0.0000
22 C22 228.3255 159.6792 178.3518 C.3 778 ligands_prepared 0.0000
23 N23 227.8503 158.6871 180.6954 N.4 778 ligands_prepared 1.0000
24 C24 227.3024 159.8950 181.3973 C.3 778 ligands_prepared 0.0000
25 C25 229.3543 158.7581 180.7755 C.3 778 ligands_prepared 0.0000
26 C26 227.3708 157.3040 181.4034 C.3 778 ligands_prepared 0.0000
27 C27 227.7831 156.1946 180.4406 C.3 778 ligands_prepared 0.0000
28 H28 227.9266 164.5201 174.3900 H 778 ligands_prepared 0.0000
29 H29 227.9810 164.0003 176.1161 H 778 ligands_prepared 0.0000
30 H30 229.0845 163.2372 174.9091 H 778 ligands_prepared 0.0000
31 H31 228.5122 161.9417 176.8823 H 778 ligands_prepared 0.0000
32 H32 225.0080 158.8114 175.1963 H 778 ligands_prepared 0.0000
33 H33 224.7563 159.4304 172.9197 H 778 ligands_prepared 0.0000
34 H34 223.8618 160.9404 172.5031 H 778 ligands_prepared 0.0000
35 H35 223.4939 160.0753 174.0415 H 778 ligands_prepared 0.0000
36 H36 226.0096 157.0083 173.3425 H 778 ligands_prepared 0.0000
37 H37 227.2087 157.8002 174.4366 H 778 ligands_prepared 0.0000
38 H38 227.2376 156.0120 174.2201 H 778 ligands_prepared 0.0000
39 H39 225.2472 152.4833 176.0992 H 778 ligands_prepared 0.0000
40 H40 224.9169 153.0991 177.7628 H 778 ligands_prepared 0.0000
41 H41 226.6084 152.7109 177.2600 H 778 ligands_prepared 0.0000
42 H42 226.7851 154.2566 178.8855 H 778 ligands_prepared 0.0000
43 H43 226.4105 159.5483 179.3708 H 778 ligands_prepared 0.0000
44 H44 229.2193 159.0662 178.1038 H 778 ligands_prepared 0.0000
45 H45 228.7240 160.5990 178.8292 H 778 ligands_prepared 0.0000
46 H46 227.7600 160.8223 181.0006 H 778 ligands_prepared 0.0000
47 H47 226.2092 159.9943 181.2584 H 778 ligands_prepared 0.0000
48 H48 227.5170 159.8642 182.4818 H 778 ligands_prepared 0.0000
49 H49 229.6891 158.9127 181.8198 H 778 ligands_prepared 0.0000
50 H50 229.8248 157.8275 180.4092 H 778 ligands_prepared 0.0000
51 H51 229.7459 159.5974 180.1722 H 778 ligands_prepared 0.0000
52 H52 227.8566 157.1618 182.4000 H 778 ligands_prepared 0.0000
53 H53 226.2701 157.2769 181.5862 H 778 ligands_prepared 0.0000
54 H54 227.5699 155.1830 180.8574 H 778 ligands_prepared 0.0000
55 H55 228.8969 156.2033 180.3397 H 778 ligands_prepared 0.0000
@<TRIPOS>BOND
      1     1     2    1
      2     1    28    1
      3     1    29    1
      4     1    30    1
      5     2     3    1
      6     3     4   ar
      7     3     8   ar
      8     4     5   ar
      9     4    31    1
     10     5     6   ar
     11     5    22    1
     12     6     7   ar
     13     6    11    1
     14     7     8   ar
     15     7    32    1
     16     8     9    1
     17     9    10    1
     18    10    33    1
     19    10    34    1
     20    10    35    1
     21    11    12   ar
     22    11    20   ar
     23    12    13    1
     24    12    15   ar
     25    13    14    1
     26    14    36    1
     27    14    37    1
     28    14    38    1
     29    15    16    1
     30    15    18   ar
     31    16    17    1
     32    17    39    1
     33    17    40    1
     34    17    41    1
     35    18    19   ar
     36    18    42    1
     37    19    20   ar
     38    19    27    1
     39    20    21    1
     40    21    22    1
     41    21    23    1
     42    21    43    1
     43    22    44    1
     44    22    45    1
     45    23    24    1
     46    23    25    1
     47    23    26    1
     48    24    46    1
     49    24    47    1
     50    24    48    1
     51    25    49    1
     52    25    50    1
     53    25    51    1
     54    26    27    1
     55    26    52    1
     56    26    53    1
     57    27    54    1
     58    27    55    1
@<TRIPOS>MOLECULE
CHEMBL225853_nacw_LIG
46 49 1 0 0
SMALL
USER_CHARGES

@<TRIPOS>ATOM
1 C1 225.0827 160.6100 172.4696 C.3 778 ligands_prepared 0.0000
2 O2 225.2787 161.3685 173.6581 O.3 778 ligands_prepared 0.0000
3 C3 225.9484 160.7531 174.6741 C.ar 778 ligands_prepared 0.0000
4 C4 225.9675 159.3900 174.9298 C.ar 778 ligands_prepared 0.0000
5 C5 226.6838 158.9028 176.0301 C.ar 778 ligands_prepared 0.0000
6 C6 227.3124 159.8018 176.9038 C.ar 778 ligands_prepared 0.0000
7 C7 227.3108 161.1713 176.6469 C.ar 778 ligands_prepared 0.0000
8 C8 226.6381 161.6427 175.5240 C.ar 778 ligands_prepared 0.0000
9 O9 226.6735 162.9815 175.3172 O.3 778 ligands_prepared 0.0000
10 C10 227.9806 159.2652 178.1272 C.3 778 ligands_prepared 0.0000
11 C11 227.1198 158.1181 178.6851 C.3 778 ligands_prepared 0.0000
12 C12 226.9383 157.0416 177.6502 C.ar 778 ligands_prepared 0.0000
13 C13 226.9203 155.6901 177.9871 C.ar 778 ligands_prepared 0.0000
14 C14 226.8492 154.7422 176.9592 C.ar 778 ligands_prepared 0.0000
15 Br15 226.8387 152.8925 177.3468 Br 778 ligands_prepared 0.0000
16 C16 226.7806 155.1383 175.6278 C.ar 778 ligands_prepared 0.0000
17 O17 226.6995 154.3008 174.5752 O.3 778 ligands_prepared 0.0000
18 C18 226.7372 156.5125 175.3022 C.ar 778 ligands_prepared 0.0000
19 O19 226.5767 156.9549 174.0262 O.3 778 ligands_prepared 0.0000
20 C20 227.7804 157.3370 173.3556 C.3 778 ligands_prepared 0.0000
21 C21 226.7773 157.4709 176.3160 C.ar 778 ligands_prepared 0.0000
22 C22 226.9930 155.2514 179.4141 C.3 778 ligands_prepared 0.0000
23 C23 226.9069 156.3991 180.4175 C.3 778 ligands_prepared 0.0000
24 N24 227.7310 157.5847 179.9730 N.4 778 ligands_prepared 1.0000
25 C25 227.7987 158.6661 181.0103 C.3 778 ligands_prepared 0.0000
26 H26 226.0360 160.2665 172.0548 H 778 ligands_prepared 0.0000
27 H27 224.6125 161.3453 171.7998 H 778 ligands_prepared 0.0000
28 H28 224.4048 159.7686 172.6529 H 778 ligands_prepared 0.0000
29 H29 225.4125 158.7016 174.2871 H 778 ligands_prepared 0.0000
30 H30 227.8210 161.8700 177.3118 H 778 ligands_prepared 0.0000
31 H31 226.7940 163.4853 176.1724 H 778 ligands_prepared 0.0000
32 H32 228.1288 160.0560 178.8964 H 778 ligands_prepared 0.0000
33 H33 229.0064 158.9165 177.8634 H 778 ligands_prepared 0.0000
34 H34 226.0979 158.5264 178.9648 H 778 ligands_prepared 0.0000
35 H35 227.2387 153.4639 174.6812 H 778 ligands_prepared 0.0000
36 H36 227.4032 158.0069 172.5705 H 778 ligands_prepared 0.0000
37 H37 228.2572 156.4526 172.9197 H 778 ligands_prepared 0.0000
38 H38 228.4713 157.8673 174.0159 H 778 ligands_prepared 0.0000
39 H39 227.9267 154.6628 179.5859 H 778 ligands_prepared 0.0000
40 H40 226.1637 154.5369 179.6474 H 778 ligands_prepared 0.0000
41 H41 225.8496 156.7348 180.5574 H 778 ligands_prepared 0.0000
42 H42 227.2551 156.0689 181.4268 H 778 ligands_prepared 0.0000
43 H43 228.7159 157.2489 179.7733 H 778 ligands_prepared 0.0000
44 H44 228.4688 158.3740 181.8400 H 778 ligands_prepared 0.0000
45 H45 228.2099 159.5984 180.5768 H 778 ligands_prepared 0.0000
46 H46 226.8055 158.8993 181.4337 H 778 ligands_prepared 0.0000
@<TRIPOS>BOND
      1     1     2    1
      2     1    26    1
      3     1    27    1
      4     1    28    1
      5     2     3    1
      6     3     4   ar
      7     3     8   ar
      8     4     5   ar
      9     4    29    1
     10     5     6   ar
     11     5    21    1
     12     6     7   ar
     13     6    10    1
     14     7     8   ar
     15     7    30    1
     16     8     9    1
     17     9    31    1
     18    10    11    1
     19    10    32    1
     20    10    33    1
     21    11    12    1
     22    11    24    1
     23    11    34    1
     24    12    13   ar
     25    12    21   ar
     26    13    14   ar
     27    13    22    1
     28    14    15    1
     29    14    16   ar
     30    16    17    1
     31    16    18   ar
     32    17    35    1
     33    18    19    1
     34    18    21   ar
     35    19    20    1
     36    20    36    1
     37    20    37    1
     38    20    38    1
     39    22    23    1
     40    22    39    1
     41    22    40    1
     42    23    24    1
     43    23    41    1
     44    23    42    1
     45    24    25    1
     46    24    43    1
     47    25    44    1
     48    25    45    1
     49    25    46    1
@<TRIPOS>MOLECULE
CHEMBL2261107_LIG
30 30 1 0 0
SMALL
USER_CHARGES

@<TRIPOS>ATOM
1 C1 218.5254 151.3301 172.7839 C.3 778 ligands_prepared 0.0000
2 N2 217.0817 151.2713 173.2013 N.4 778 ligands_prepared 1.0000
3 C3 216.2195 152.1998 172.3936 C.3 778 ligands_prepared 0.0000
4 C4 216.9669 151.6331 174.6658 C.3 778 ligands_prepared 0.0000
5 C5 217.1444 153.1444 174.8858 C.3 778 ligands_prepared 0.0000
6 O6 217.3008 153.3961 176.2747 O.3 778 ligands_prepared 0.0000
7 C7 218.5239 153.2559 176.8650 C.ar 778 ligands_prepared 0.0000
8 C8 219.7116 152.9016 176.2243 C.ar 778 ligands_prepared 0.0000
9 C9 220.8873 152.8039 176.9635 C.ar 778 ligands_prepared 0.0000
10 C10 220.9007 153.0606 178.3305 C.ar 778 ligands_prepared 0.0000
11 C11 219.7014 153.4312 178.9501 C.ar 778 ligands_prepared 0.0000
12 N12 219.7056 153.6984 180.3775 N.pl3 778 ligands_prepared 0.0000
13 O13 218.6432 153.9191 180.9458 O.2 778 ligands_prepared 0.0000
14 O14 220.7701 153.7016 180.9833 O.2 778 ligands_prepared 0.0000
15 C15 218.5042 153.5424 178.2403 C.ar 778 ligands_prepared 0.0000
16 H16 219.1529 150.6161 173.3487 H 778 ligands_prepared 0.0000
17 H17 218.9302 152.3471 172.9325 H 778 ligands_prepared 0.0000
18 H18 218.6228 151.0889 171.7079 H 778 ligands_prepared 0.0000
19 H19 216.7243 150.2844 173.0722 H 778 ligands_prepared 0.0000
20 H20 216.5707 153.2469 172.4399 H 778 ligands_prepared 0.0000
21 H21 215.1805 152.1815 172.7772 H 778 ligands_prepared 0.0000
22 H22 216.1805 151.8843 171.3380 H 778 ligands_prepared 0.0000
23 H23 215.9862 151.2872 175.0705 H 778 ligands_prepared 0.0000
24 H24 217.7480 151.0738 175.2339 H 778 ligands_prepared 0.0000
25 H25 216.2119 153.7086 174.6549 H 778 ligands_prepared 0.0000
26 H26 217.9663 153.5752 174.2856 H 778 ligands_prepared 0.0000
27 H27 219.7360 152.7056 175.1487 H 778 ligands_prepared 0.0000
28 H28 221.8172 152.5183 176.4588 H 778 ligands_prepared 0.0000
29 H29 221.8324 152.9728 178.9006 H 778 ligands_prepared 0.0000
30 H30 217.5758 153.8425 178.7309 H 778 ligands_prepared 0.0000
@<TRIPOS>BOND
      1     1     2    1
      2     1    16    1
      3     1    17    1
      4     1    18    1
      5     2     3    1
      6     2     4    1
      7     2    19    1
      8     3    20    1
      9     3    21    1
     10     3    22    1
     11     4     5    1
     12     4    23    1
     13     4    24    1
     14     5     6    1
     15     5    25    1
     16     5    26    1
     17     6     7    1
     18     7     8   ar
     19     7    15   ar
     20     8     9   ar
     21     8    27    1
     22     9    10   ar
     23     9    28    1
     24    10    11   ar
     25    10    29    1
     26    11    12    1
     27    11    15   ar
     28    12    13    2
     29    12    14    2
     30    15    30    1
@<TRIPOS>MOLECULE
CHEMBL2261108_LIG
29 29 1 0 0
SMALL
USER_CHARGES

@<TRIPOS>ATOM
1 C1 216.4021 152.2027 172.5672 C.3 778 ligands_prepared 0.0000
2 N2 217.0401 152.1188 173.9227 N.4 778 ligands_prepared 1.0000
3 C3 218.4032 151.5047 173.8006 C.3 778 ligands_prepared 0.0000
4 C4 217.1453 153.5023 174.5163 C.3 778 ligands_prepared 0.0000
5 C5 217.3332 153.4006 176.0360 C.3 778 ligands_prepared 0.0000
6 O6 218.7239 153.1022 176.1758 O.3 778 ligands_prepared 0.0000
7 C7 219.2475 153.2339 177.4239 C.ar 778 ligands_prepared 0.0000
8 C8 220.6472 153.1166 177.4502 C.ar 778 ligands_prepared 0.0000
9 C9 221.3053 153.2409 178.6674 C.ar 778 ligands_prepared 0.0000
10 C10 220.5971 153.4773 179.8455 C.ar 778 ligands_prepared 0.0000
11 C11 219.2064 153.5840 179.7749 C.ar 778 ligands_prepared 0.0000
12 O12 218.4412 153.8112 180.8661 O.3 778 ligands_prepared 0.0000
13 C13 218.4994 153.4657 178.5735 C.ar 778 ligands_prepared 0.0000
14 H14 215.3818 152.6239 172.6384 H 778 ligands_prepared 0.0000
15 H15 216.9894 152.8295 171.8732 H 778 ligands_prepared 0.0000
16 H16 216.3107 151.1934 172.1203 H 778 ligands_prepared 0.0000
17 H17 216.4374 151.5123 174.5473 H 778 ligands_prepared 0.0000
18 H18 218.8634 151.3550 174.7945 H 778 ligands_prepared 0.0000
19 H19 219.0839 152.1287 173.1950 H 778 ligands_prepared 0.0000
20 H20 218.3409 150.5086 173.3201 H 778 ligands_prepared 0.0000
21 H21 216.2149 154.0820 174.2839 H 778 ligands_prepared 0.0000
22 H22 217.9816 154.0694 174.0427 H 778 ligands_prepared 0.0000
23 H23 216.7390 152.5793 176.4821 H 778 ligands_prepared 0.0000
24 H24 217.1079 154.3581 176.5491 H 778 ligands_prepared 0.0000
25 H25 221.1934 152.9318 176.5281 H 778 ligands_prepared 0.0000
26 H26 222.3965 153.1535 178.7022 H 778 ligands_prepared 0.0000
27 H27 221.1138 153.5777 180.7971 H 778 ligands_prepared 0.0000
28 H28 218.8545 153.4626 181.7087 H 778 ligands_prepared 0.0000
29 H29 217.4189 153.5583 178.5706 H 778 ligands_prepared 0.0000
@<TRIPOS>BOND
      1     1     2    1
      2     1    14    1
      3     1    15    1
      4     1    16    1
      5     2     3    1
      6     2     4    1
      7     2    17    1
      8     3    18    1
      9     3    19    1
     10     3    20    1
     11     4     5    1
     12     4    21    1
     13     4    22    1
     14     5     6    1
     15     5    23    1
     16     5    24    1
     17     6     7    1
     18     7     8   ar
     19     7    13   ar
     20     8     9   ar
     21     8    25    1
     22     9    10   ar
     23     9    26    1
     24    10    11   ar
     25    10    27    1
     26    11    12    1
     27    11    13   ar
     28    12    28    1
     29    13    29    1
@<TRIPOS>MOLECULE
CHEMBL2261111_LIG
39 39 1 0 0
SMALL
USER_CHARGES

@<TRIPOS>ATOM
1 C1 216.2519 154.2540 174.9181 C.3 778 ligands_prepared 0.0000
2 C2 216.8151 153.2059 173.9677 C.3 778 ligands_prepared 0.0000
3 C3 215.7140 152.4413 173.2538 C.3 778 ligands_prepared 0.0000
4 N4 217.7534 152.2780 174.7727 N.4 778 ligands_prepared 1.0000
5 C5 218.7077 153.0828 175.6157 C.3 778 ligands_prepared 0.0000
6 C6 219.7839 152.1797 176.2389 C.3 778 ligands_prepared 0.0000
7 O7 220.5377 153.1120 177.0196 O.3 778 ligands_prepared 0.0000
8 C8 220.1160 153.3299 178.2905 C.ar 778 ligands_prepared 0.0000
9 C9 221.1455 153.6966 179.1727 C.ar 778 ligands_prepared 0.0000
10 C10 220.8189 153.9053 180.5031 C.ar 778 ligands_prepared 0.0000
11 C11 219.4837 153.7435 180.9083 C.ar 778 ligands_prepared 0.0000
12 N12 218.5032 153.3946 180.0574 N.ar 778 ligands_prepared 0.0000
13 C13 218.8030 153.1879 178.7608 C.ar 778 ligands_prepared 0.0000
14 C14 218.4922 151.2480 173.8880 C.3 778 ligands_prepared 0.0000
15 C15 217.6009 150.1137 173.4067 C.3 778 ligands_prepared 0.0000
16 C16 219.0921 152.0048 172.7074 C.3 778 ligands_prepared 0.0000
17 H17 215.6883 155.0171 174.3552 H 778 ligands_prepared 0.0000
18 H18 215.5516 153.8431 175.6592 H 778 ligands_prepared 0.0000
19 H19 217.0340 154.7987 175.4677 H 778 ligands_prepared 0.0000
20 H20 217.4684 153.7162 173.2016 H 778 ligands_prepared 0.0000
21 H21 215.1415 153.1215 172.5992 H 778 ligands_prepared 0.0000
22 H22 216.0967 151.6465 172.5992 H 778 ligands_prepared 0.0000
23 H23 214.9827 151.9923 173.9389 H 778 ligands_prepared 0.0000
24 H24 217.1313 151.7215 175.4317 H 778 ligands_prepared 0.0000
25 H25 218.1553 153.6455 176.4048 H 778 ligands_prepared 0.0000
26 H26 219.2051 153.8607 174.9772 H 778 ligands_prepared 0.0000
27 H27 219.3590 151.3986 176.8980 H 778 ligands_prepared 0.0000
28 H28 220.4488 151.7170 175.4824 H 778 ligands_prepared 0.0000
29 H29 222.1674 153.8107 178.8056 H 778 ligands_prepared 0.0000
30 H30 221.5834 154.1930 181.2293 H 778 ligands_prepared 0.0000
31 H31 219.1844 153.8975 181.9544 H 778 ligands_prepared 0.0000
32 H32 217.9694 152.9043 178.1090 H 778 ligands_prepared 0.0000
33 H33 219.3208 150.8259 174.5240 H 778 ligands_prepared 0.0000
34 H34 218.2191 149.3090 172.9725 H 778 ligands_prepared 0.0000
35 H35 217.0137 149.6437 174.2053 H 778 ligands_prepared 0.0000
36 H36 216.8985 150.4163 172.6169 H 778 ligands_prepared 0.0000
37 H37 218.3308 152.4574 172.0548 H 778 ligands_prepared 0.0000
38 H38 219.7816 152.8039 173.0171 H 778 ligands_prepared 0.0000
39 H39 219.6802 151.3229 172.0723 H 778 ligands_prepared 0.0000
@<TRIPOS>BOND
      1     1     2    1
      2     1    17    1
      3     1    18    1
      4     1    19    1
      5     2     3    1
      6     2     4    1
      7     2    20    1
      8     3    21    1
      9     3    22    1
     10     3    23    1
     11     4     5    1
     12     4    14    1
     13     4    24    1
     14     5     6    1
     15     5    25    1
     16     5    26    1
     17     6     7    1
     18     6    27    1
     19     6    28    1
     20     7     8    1
     21     8     9   ar
     22     8    13   ar
     23     9    10   ar
     24     9    29    1
     25    10    11   ar
     26    10    30    1
     27    11    12   ar
     28    11    31    1
     29    12    13   ar
     30    13    32    1
     31    14    15    1
     32    14    16    1
     33    14    33    1
     34    15    34    1
     35    15    35    1
     36    15    36    1
     37    16    37    1
     38    16    38    1
     39    16    39    1
@<TRIPOS>MOLECULE
CHEMBL2332276_LIG
45 48 1 0 0
SMALL
USER_CHARGES

@<TRIPOS>ATOM
1 C1 227.7971 157.6919 180.8654 C.ar 778 ligands_prepared 0.0000
2 C2 227.5063 158.6842 179.9340 C.ar 778 ligands_prepared 0.0000
3 C3 226.9455 158.3472 178.7034 C.ar 778 ligands_prepared 0.0000
4 C4 226.6628 157.0167 178.3998 C.ar 778 ligands_prepared 0.0000
5 C5 226.0793 156.5571 177.0892 C.3 778 ligands_prepared 0.0000
6 C6 225.8503 155.0704 177.0085 C.ar 778 ligands_prepared 0.0000
7 C7 226.8736 154.1245 176.9926 C.ar 778 ligands_prepared 0.0000
8 C8 226.5729 152.7647 176.9369 C.ar 778 ligands_prepared 0.0000
9 C9 225.2460 152.3416 176.9060 C.ar 778 ligands_prepared 0.0000
10 C10 224.2179 153.2822 176.9421 C.ar 778 ligands_prepared 0.0000
11 C11 224.5180 154.6393 176.9909 C.ar 778 ligands_prepared 0.0000
12 N12 226.8721 157.0946 175.8744 N.4 778 ligands_prepared 1.0000
13 C13 228.3549 156.9218 176.1448 C.3 778 ligands_prepared 0.0000
14 C14 229.1886 157.5302 175.0035 C.3 778 ligands_prepared 0.0000
15 N15 228.2842 158.1133 173.9488 N.4 778 ligands_prepared 1.0000
16 C16 227.4230 159.1770 174.5810 C.3 778 ligands_prepared 0.0000
17 C17 226.5839 158.5761 175.7234 C.3 778 ligands_prepared 0.0000
18 C18 227.3907 157.0205 173.4221 C.3 778 ligands_prepared 0.0000
19 C19 226.5505 156.4180 174.5657 C.3 778 ligands_prepared 0.0000
20 C20 226.9685 156.0207 179.3359 C.ar 778 ligands_prepared 0.0000
21 C21 227.5357 156.3566 180.5608 C.ar 778 ligands_prepared 0.0000
22 H22 228.2308 157.9582 181.8324 H 778 ligands_prepared 0.0000
23 H23 227.7147 159.7332 180.1597 H 778 ligands_prepared 0.0000
24 H24 226.7407 159.1458 177.9866 H 778 ligands_prepared 0.0000
25 H25 225.0585 157.0633 176.9776 H 778 ligands_prepared 0.0000
26 H26 227.9226 154.4256 177.0297 H 778 ligands_prepared 0.0000
27 H27 227.3863 152.0354 176.9186 H 778 ligands_prepared 0.0000
28 H28 225.0117 151.2752 176.8549 H 778 ligands_prepared 0.0000
29 H29 223.1749 152.9590 176.9303 H 778 ligands_prepared 0.0000
30 H30 223.7031 155.3687 177.0186 H 778 ligands_prepared 0.0000
31 H31 228.5896 155.8341 176.2676 H 778 ligands_prepared 0.0000
32 H32 228.6205 157.3990 177.1214 H 778 ligands_prepared 0.0000
33 H33 229.8593 156.7630 174.5390 H 778 ligands_prepared 0.0000
34 H34 229.8793 158.3235 175.3869 H 778 ligands_prepared 0.0000
35 H35 228.8592 158.5292 173.1594 H 778 ligands_prepared 0.0000
36 H36 228.0694 160.0124 174.9519 H 778 ligands_prepared 0.0000
37 H37 226.7683 159.6411 173.7994 H 778 ligands_prepared 0.0000
38 H38 225.4924 158.7286 175.5308 H 778 ligands_prepared 0.0000
39 H39 226.7978 159.1047 176.6854 H 778 ligands_prepared 0.0000
40 H40 228.0128 156.2335 172.9231 H 778 ligands_prepared 0.0000
41 H41 226.7337 157.4291 172.6127 H 778 ligands_prepared 0.0000
42 H42 226.7489 155.3195 174.6422 H 778 ligands_prepared 0.0000
43 H43 225.4622 156.5305 174.3334 H 778 ligands_prepared 0.0000
44 H44 226.7659 154.9705 179.1077 H 778 ligands_prepared 0.0000
45 H45 227.7717 155.5699 181.2810 H 778 ligands_prepared 0.0000
@<TRIPOS>BOND
      1     1     2   ar
      2     1    21   ar
      3     1    22    1
      4     2     3   ar
      5     2    23    1
      6     3     4   ar
      7     3    24    1
      8     4     5    1
      9     4    20   ar
     10     5     6    1
     11     5    25    1
     12     6     7   ar
     13     6    11   ar
     14     7     8   ar
     15     7    26    1
     16     8     9   ar
     17     8    27    1
     18     9    10   ar
     19     9    28    1
     20    10    11   ar
     21    10    29    1
     22    11    30    1
     23    12     5    1
     24    12    13    1
     25    12    17    1
     26    12    19    1
     27    13    14    1
     28    13    31    1
     29    13    32    1
     30    14    15    1
     31    14    33    1
     32    14    34    1
     33    15    16    1
     34    15    18    1
     35    15    35    1
     36    16    17    1
     37    16    36    1
     38    16    37    1
     39    17    38    1
     40    17    39    1
     41    18    19    1
     42    18    40    1
     43    18    41    1
     44    19    42    1
     45    19    43    1
     46    20    21   ar
     47    20    44    1
     48    21    45    1
@<TRIPOS>MOLECULE
CHEMBL2332280_LIG
45 47 1 0 0
SMALL
USER_CHARGES

@<TRIPOS>ATOM
1 C1 220.3262 153.1999 176.0667 C.2 778 ligands_prepared 0.0000
2 C2 218.8351 153.1920 175.9838 C.3 778 ligands_prepared 0.0000
3 N3 218.3120 152.0175 175.1775 N.4 778 ligands_prepared 1.0000
4 C4 216.8174 152.1464 174.9325 C.3 778 ligands_prepared 0.0000
5 C5 216.5647 153.0609 173.7388 C.3 778 ligands_prepared 0.0000
6 C6 217.0873 152.4246 172.4428 C.3 778 ligands_prepared 0.0000
7 C7 218.2141 151.4245 172.7295 C.3 778 ligands_prepared 0.0000
8 C8 219.0943 151.9124 173.8733 C.3 778 ligands_prepared 0.0000
9 C9 221.0361 153.2999 177.2005 C.2 778 ligands_prepared 0.0000
10 C10 220.4203 153.4640 178.5266 C.ar 778 ligands_prepared 0.0000
11 C11 219.0891 153.1003 178.7317 C.ar 778 ligands_prepared 0.0000
12 C12 218.5004 153.3069 179.9768 C.ar 778 ligands_prepared 0.0000
13 C13 219.2413 153.8695 181.0146 C.ar 778 ligands_prepared 0.0000
14 C14 220.5772 154.2130 180.8152 C.ar 778 ligands_prepared 0.0000
15 C15 221.1724 154.0060 179.5730 C.ar 778 ligands_prepared 0.0000
16 C16 222.5040 153.2641 177.1934 C.ar 778 ligands_prepared 0.0000
17 C17 223.1815 152.0970 177.5538 C.ar 778 ligands_prepared 0.0000
18 C18 224.5738 152.0716 177.5329 C.ar 778 ligands_prepared 0.0000
19 C19 225.2895 153.2064 177.1559 C.ar 778 ligands_prepared 0.0000
20 C20 224.6122 154.3736 176.8029 C.ar 778 ligands_prepared 0.0000
21 C21 223.2208 154.4037 176.8172 C.ar 778 ligands_prepared 0.0000
22 H22 220.8278 153.0736 175.1003 H 778 ligands_prepared 0.0000
23 H23 218.4699 154.1459 175.5186 H 778 ligands_prepared 0.0000
24 H24 218.3715 153.1619 177.0031 H 778 ligands_prepared 0.0000
25 H25 218.4707 151.1309 175.7251 H 778 ligands_prepared 0.0000
26 H26 216.3733 151.1373 174.7561 H 778 ligands_prepared 0.0000
27 H27 216.3412 152.5411 175.8600 H 778 ligands_prepared 0.0000
28 H28 215.4747 153.2649 173.6559 H 778 ligands_prepared 0.0000
29 H29 217.0244 154.0569 173.8984 H 778 ligands_prepared 0.0000
30 H30 217.4425 153.2171 171.7548 H 778 ligands_prepared 0.0000
31 H31 216.2657 151.9140 171.9042 H 778 ligands_prepared 0.0000
32 H32 218.8379 151.2754 171.8210 H 778 ligands_prepared 0.0000
33 H33 217.7996 150.4204 172.9531 H 778 ligands_prepared 0.0000
34 H34 219.9724 151.2406 174.0195 H 778 ligands_prepared 0.0000
35 H35 219.5085 152.9221 173.6362 H 778 ligands_prepared 0.0000
36 H36 218.5110 152.6543 177.9192 H 778 ligands_prepared 0.0000
37 H37 217.4559 153.0325 180.1360 H 778 ligands_prepared 0.0000
38 H38 218.7753 154.0393 181.9876 H 778 ligands_prepared 0.0000
39 H39 221.1596 154.6472 181.6306 H 778 ligands_prepared 0.0000
40 H40 222.2212 154.2628 179.4181 H 778 ligands_prepared 0.0000
41 H41 222.6208 151.2084 177.8464 H 778 ligands_prepared 0.0000
42 H42 225.1027 151.1594 177.8137 H 778 ligands_prepared 0.0000
43 H43 226.3801 153.1832 177.1377 H 778 ligands_prepared 0.0000
44 H44 225.1706 155.2653 176.5133 H 778 ligands_prepared 0.0000
45 H45 222.6856 155.3124 176.5380 H 778 ligands_prepared 0.0000
@<TRIPOS>BOND
      1     1     2    1
      2     1     9    2
      3     1    22    1
      4     2     3    1
      5     2    23    1
      6     2    24    1
      7     4     3    1
      8     3     8    1
      9     3    25    1
     10     4     5    1
     11     4    26    1
     12     4    27    1
     13     5     6    1
     14     5    28    1
     15     5    29    1
     16     6     7    1
     17     6    30    1
     18     6    31    1
     19     7     8    1
     20     7    32    1
     21     7    33    1
     22     8    34    1
     23     8    35    1
     24     9    10    1
     25     9    16    1
     26    10    11   ar
     27    10    15   ar
     28    11    12   ar
     29    11    36    1
     30    12    13   ar
     31    12    37    1
     32    13    14   ar
     33    13    38    1
     34    14    15   ar
     35    14    39    1
     36    15    40    1
     37    16    17   ar
     38    16    21   ar
     39    17    18   ar
     40    17    41    1
     41    18    19   ar
     42    18    42    1
     43    19    20   ar
     44    19    43    1
     45    20    21   ar
     46    20    44    1
     47    21    45    1
@<TRIPOS>MOLECULE
CHEMBL2381563_nacw_LIG
34 35 1 0 0
SMALL
USER_CHARGES

@<TRIPOS>ATOM
1 C1 224.7932 155.7669 176.1261 C.3 778 ligands_prepared 0.0000
2 N2 224.8532 154.7292 177.2060 N.4 778 ligands_prepared 1.0000
3 C3 226.4966 154.0823 177.3400 C.3 778 ligands_prepared 0.0000
4 C4 226.1772 152.6546 176.8773 C.3 778 ligands_prepared 0.0000
5 C5 224.8226 152.3044 177.4991 C.3 778 ligands_prepared 0.0000
6 C6 223.8538 153.3943 177.0292 C.3 778 ligands_prepared 0.0000
7 C7 222.5261 153.3744 177.7773 C.3 778 ligands_prepared 0.0000
8 O8 221.4838 152.8493 176.9584 O.3 778 ligands_prepared 0.0000
9 C9 220.1997 153.0768 177.3259 C.2 778 ligands_prepared 0.0000
10 O10 219.8994 153.3601 178.4627 O.2 778 ligands_prepared 0.0000
11 C11 219.2815 152.9248 176.1855 C.ar 778 ligands_prepared 0.0000
12 C12 217.9666 153.3900 176.3133 C.ar 778 ligands_prepared 0.0000
13 C13 217.0580 153.1808 175.2747 C.ar 778 ligands_prepared 0.0000
14 C14 217.5019 152.5077 174.1428 C.ar 778 ligands_prepared 0.0000
15 Cl15 216.3670 152.1979 172.8934 Cl 778 ligands_prepared 0.0000
16 C16 218.8053 152.0575 173.9823 C.ar 778 ligands_prepared 0.0000
17 C17 219.7074 152.2723 175.0253 C.ar 778 ligands_prepared 0.0000
18 H18 225.2054 155.3954 175.1698 H 778 ligands_prepared 0.0000
19 H19 225.3564 156.6783 176.4087 H 778 ligands_prepared 0.0000
20 H20 223.7431 156.0812 175.9514 H 778 ligands_prepared 0.0000
21 H21 224.4905 155.1548 178.1021 H 778 ligands_prepared 0.0000
22 H22 226.9339 154.0841 178.3620 H 778 ligands_prepared 0.0000
23 H23 227.2450 154.5772 176.6803 H 778 ligands_prepared 0.0000
24 H24 226.9634 151.9362 177.1923 H 778 ligands_prepared 0.0000
25 H25 226.1561 152.5804 175.7698 H 778 ligands_prepared 0.0000
26 H26 224.4685 151.2975 177.2005 H 778 ligands_prepared 0.0000
27 H27 224.9048 152.2768 178.6027 H 778 ligands_prepared 0.0000
28 H28 223.6291 153.2541 175.9266 H 778 ligands_prepared 0.0000
29 H29 222.5182 152.6921 178.6539 H 778 ligands_prepared 0.0000
30 H30 222.2823 154.4002 178.1313 H 778 ligands_prepared 0.0000
31 H31 217.6437 153.8947 177.2319 H 778 ligands_prepared 0.0000
32 H32 216.0241 153.5258 175.3709 H 778 ligands_prepared 0.0000
33 H33 219.1309 151.5316 173.0801 H 778 ligands_prepared 0.0000
34 H34 220.7351 151.9021 174.9395 H 778 ligands_prepared 0.0000
@<TRIPOS>BOND
      1     1     2    1
      2     1    18    1
      3     1    19    1
      4     1    20    1
      5     2     3    1
      6     2     6    1
      7     2    21    1
      8     3     4    1
      9     3    22    1
     10     3    23    1
     11     4     5    1
     12     4    24    1
     13     4    25    1
     14     5     6    1
     15     5    26    1
     16     5    27    1
     17     6     7    1
     18     6    28    1
     19     7     8    1
     20     7    29    1
     21     7    30    1
     22     8     9    1
     23     9    10    2
     24     9    11    1
     25    11    12   ar
     26    11    17   ar
     27    12    13   ar
     28    12    31    1
     29    13    14   ar
     30    13    32    1
     31    14    15    1
     32    14    16   ar
     33    16    17   ar
     34    16    33    1
     35    17    34    1
@<TRIPOS>MOLECULE
CHEMBL2381564_ncw_LIG
33 34 1 0 0
SMALL
USER_CHARGES

@<TRIPOS>ATOM
1 C1 219.1001 151.6079 173.7768 C.3 778 ligands_prepared 0.0000
2 N2 218.0706 151.8501 174.8352 N.4 778 ligands_prepared 1.0000
3 C3 216.5343 151.6219 174.0712 C.3 778 ligands_prepared 0.0000
4 C4 216.2000 153.0988 173.8402 C.3 778 ligands_prepared 0.0000
5 C5 216.6960 153.8374 175.0864 C.3 778 ligands_prepared 0.0000
6 C6 218.1126 153.3035 175.3128 C.3 778 ligands_prepared 0.0000
7 C7 218.5717 153.3748 176.7736 C.3 778 ligands_prepared 0.0000
8 O8 219.9082 152.9031 176.8680 O.3 778 ligands_prepared 0.0000
9 C9 220.6237 153.2597 177.9640 C.2 778 ligands_prepared 0.0000
10 O10 220.0923 153.6522 178.9764 O.2 778 ligands_prepared 0.0000
11 C11 222.0600 153.0984 177.7220 C.ar 778 ligands_prepared 0.0000
12 C12 222.9028 154.2001 177.5437 C.ar 778 ligands_prepared 0.0000
13 C13 224.2694 153.9857 177.3617 C.ar 778 ligands_prepared 0.0000
14 C14 224.7038 152.6631 177.3660 C.ar 778 ligands_prepared 0.0000
15 Cl15 226.3674 152.3081 177.1820 Cl 778 ligands_prepared 0.0000
16 N16 223.9105 151.5853 177.5094 N.ar 778 ligands_prepared 0.0000
17 C17 222.5940 151.7978 177.6850 C.ar 778 ligands_prepared 0.0000
18 H18 220.1128 151.8642 174.1468 H 778 ligands_prepared 0.0000
19 H19 219.1099 150.5408 173.4822 H 778 ligands_prepared 0.0000
20 H20 218.9096 152.2117 172.8703 H 778 ligands_prepared 0.0000
21 H21 218.2566 151.2063 175.6487 H 778 ligands_prepared 0.0000
22 H22 215.7881 151.1253 174.7313 H 778 ligands_prepared 0.0000
23 H23 216.5513 151.0465 173.1213 H 778 ligands_prepared 0.0000
24 H24 215.1164 153.2508 173.6771 H 778 ligands_prepared 0.0000
25 H25 216.6921 153.4824 172.9257 H 778 ligands_prepared 0.0000
26 H26 216.6966 154.9368 174.9464 H 778 ligands_prepared 0.0000
27 H27 216.0355 153.6524 175.9556 H 778 ligands_prepared 0.0000
28 H28 218.8361 153.8726 174.6604 H 778 ligands_prepared 0.0000
29 H29 217.9188 152.8095 177.4698 H 778 ligands_prepared 0.0000
30 H30 218.6724 154.4170 177.1523 H 778 ligands_prepared 0.0000
31 H31 222.5011 155.2223 177.5492 H 778 ligands_prepared 0.0000
32 H32 224.9544 154.8274 177.2300 H 778 ligands_prepared 0.0000
33 H33 221.9597 150.9019 177.8000 H 778 ligands_prepared 0.0000
@<TRIPOS>BOND
      1     1     2    1
      2     1    18    1
      3     1    19    1
      4     1    20    1
      5     2     3    1
      6     2     6    1
      7     2    21    1
      8     3     4    1
      9     3    22    1
     10     3    23    1
     11     4     5    1
     12     4    24    1
     13     4    25    1
     14     5     6    1
     15     5    26    1
     16     5    27    1
     17     6     7    1
     18     6    28    1
     19     7     8    1
     20     7    29    1
     21     7    30    1
     22     8     9    1
     23     9    10    2
     24     9    11    1
     25    11    12   ar
     26    11    17   ar
     27    12    13   ar
     28    12    31    1
     29    13    14   ar
     30    13    32    1
     31    14    15    1
     32    14    16   ar
     33    16    17   ar
     34    17    33    1
@<TRIPOS>MOLECULE
CHEMBL2381565_nacw_LIG
39 41 1 0 0
SMALL
USER_CHARGES

@<TRIPOS>ATOM
1 C1 227.0716 152.3027 177.4134 C.3 778 ligands_prepared 0.0000
2 N2 226.0369 152.8514 176.4787 N.4 778 ligands_prepared 1.0000
3 C3 226.5760 154.0369 175.9789 C.3 778 ligands_prepared 0.0000
4 C4 225.6364 155.1567 176.4511 C.3 778 ligands_prepared 0.0000
5 C5 224.2719 154.4983 176.7184 C.3 778 ligands_prepared 0.0000
6 C6 224.5830 153.1918 177.4618 C.3 778 ligands_prepared 0.0000
7 C7 223.4176 152.2136 177.4884 C.3 778 ligands_prepared 0.0000
8 O8 222.2649 152.7813 176.8717 O.3 778 ligands_prepared 0.0000
9 C9 221.1680 153.0161 177.6277 C.2 778 ligands_prepared 0.0000
10 O10 221.2438 153.2466 178.8154 O.2 778 ligands_prepared 0.0000
11 C11 219.9479 152.9685 176.8248 C.ar 778 ligands_prepared 0.0000
12 C12 218.6954 153.3945 177.3647 C.ar 778 ligands_prepared 0.0000
13 N13 217.5799 153.3829 176.6602 N.ar 778 ligands_prepared 0.0000
14 C14 217.6148 152.9388 175.3526 C.ar 778 ligands_prepared 0.0000
15 C15 216.4061 152.9374 174.6029 C.ar 778 ligands_prepared 0.0000
16 C16 216.4187 152.4958 173.3040 C.ar 778 ligands_prepared 0.0000
17 C17 217.6187 152.0421 172.7005 C.ar 778 ligands_prepared 0.0000
18 C18 218.7956 152.0400 173.4046 C.ar 778 ligands_prepared 0.0000
19 C19 218.8187 152.4906 174.7496 C.ar 778 ligands_prepared 0.0000
20 C20 220.0066 152.5147 175.5235 C.ar 778 ligands_prepared 0.0000
21 H21 227.9236 151.8724 176.8523 H 778 ligands_prepared 0.0000
22 H22 226.6444 151.4796 178.0195 H 778 ligands_prepared 0.0000
23 H23 227.4521 153.0726 178.1073 H 778 ligands_prepared 0.0000
24 H24 225.8003 152.1070 175.7716 H 778 ligands_prepared 0.0000
25 H25 226.7037 154.0156 174.8768 H 778 ligands_prepared 0.0000
26 H26 227.5954 154.1436 176.4130 H 778 ligands_prepared 0.0000
27 H27 225.5520 155.9598 175.6949 H 778 ligands_prepared 0.0000
28 H28 226.0353 155.6466 177.3596 H 778 ligands_prepared 0.0000
29 H29 223.7204 154.3174 175.7761 H 778 ligands_prepared 0.0000
30 H30 223.6153 155.1538 177.3234 H 778 ligands_prepared 0.0000
31 H31 224.8753 153.4304 178.5292 H 778 ligands_prepared 0.0000
32 H32 223.1483 151.8319 178.4914 H 778 ligands_prepared 0.0000
33 H33 223.6041 151.3389 176.8200 H 778 ligands_prepared 0.0000
34 H34 218.6298 153.7548 178.4071 H 778 ligands_prepared 0.0000
35 H35 215.4907 153.2899 175.0805 H 778 ligands_prepared 0.0000
36 H36 215.4974 152.4873 172.7118 H 778 ligands_prepared 0.0000
37 H37 217.5895 151.6947 171.6639 H 778 ligands_prepared 0.0000
38 H38 219.7279 151.6947 172.9482 H 778 ligands_prepared 0.0000
39 H39 220.9527 152.1745 175.0803 H 778 ligands_prepared 0.0000
@<TRIPOS>BOND
      1     1     2    1
      2     1    21    1
      3     1    22    1
      4     1    23    1
      5     3     2    1
      6     2     6    1
      7     2    24    1
      8     3     4    1
      9     3    25    1
     10     3    26    1
     11     4     5    1
     12     4    27    1
     13     4    28    1
     14     5     6    1
     15     5    29    1
     16     5    30    1
     17     6     7    1
     18     6    31    1
     19     7     8    1
     20     7    32    1
     21     7    33    1
     22     8     9    1
     23     9    10    2
     24     9    11    1
     25    11    12   ar
     26    11    20   ar
     27    12    13   ar
     28    12    34    1
     29    13    14   ar
     30    14    15   ar
     31    14    19   ar
     32    15    16   ar
     33    15    35    1
     34    16    17   ar
     35    16    36    1
     36    17    18   ar
     37    17    37    1
     38    18    19   ar
     39    18    38    1
     40    19    20   ar
     41    20    39    1
@<TRIPOS>MOLECULE
CHEMBL2381566_ncw_LIG
48 50 1 0 0
SMALL
USER_CHARGES

@<TRIPOS>ATOM
1 C1 227.4653 156.3951 179.6756 C.3 778 ligands_prepared 0.0000
2 N2 227.3589 156.4182 178.1851 N.4 778 ligands_prepared 1.0000
3 C3 227.6496 157.8046 177.6235 C.3 778 ligands_prepared 0.0000
4 C4 226.3505 158.1762 176.5380 C.3 778 ligands_prepared 0.0000
5 C5 225.8289 156.7448 176.3420 C.3 778 ligands_prepared 0.0000
6 C6 225.9509 156.0673 177.7120 C.3 778 ligands_prepared 0.0000
7 C7 225.7764 154.5414 177.6537 C.3 778 ligands_prepared 0.0000
8 O8 224.4225 154.2982 177.3055 O.3 778 ligands_prepared 0.0000
9 C9 223.9331 153.0388 177.4837 C.2 778 ligands_prepared 0.0000
10 O10 224.6724 152.0957 177.6558 O.2 778 ligands_prepared 0.0000
11 C11 222.4746 153.0205 177.4231 C.ar 778 ligands_prepared 0.0000
12 C12 221.7104 152.2084 178.2735 C.ar 778 ligands_prepared 0.0000
13 C13 220.3292 152.2460 178.2094 C.ar 778 ligands_prepared 0.0000
14 C14 219.7135 153.1123 177.2863 C.ar 778 ligands_prepared 0.0000
15 O15 218.3648 153.0805 177.3495 O.3 778 ligands_prepared 0.0000
16 C16 217.6173 153.7952 176.3626 C.3 778 ligands_prepared 0.0000
17 C17 217.5179 153.0169 175.0900 C.ar 778 ligands_prepared 0.0000
18 C18 218.6547 152.4021 174.5631 C.ar 778 ligands_prepared 0.0000
19 C19 218.5693 151.6946 173.3670 C.ar 778 ligands_prepared 0.0000
20 C20 217.3469 151.5913 172.7041 C.ar 778 ligands_prepared 0.0000
21 C21 216.2105 152.1964 173.2373 C.ar 778 ligands_prepared 0.0000
22 C22 216.2934 152.9126 174.4290 C.ar 778 ligands_prepared 0.0000
23 C23 220.4648 153.9153 176.4218 C.ar 778 ligands_prepared 0.0000
24 C24 221.8496 153.8628 176.4944 C.ar 778 ligands_prepared 0.0000
25 H25 228.4931 156.6594 179.9951 H 778 ligands_prepared 0.0000
26 H26 227.2438 155.3849 180.0722 H 778 ligands_prepared 0.0000
27 H27 226.7674 157.1082 180.1530 H 778 ligands_prepared 0.0000
28 H28 228.0491 155.7327 177.7752 H 778 ligands_prepared 0.0000
29 H29 227.8360 158.5260 178.4506 H 778 ligands_prepared 0.0000
30 H30 228.5831 157.7623 177.0173 H 778 ligands_prepared 0.0000
31 H31 225.5608 158.8350 176.9514 H 778 ligands_prepared 0.0000
32 H32 226.6394 158.6321 175.5714 H 778 ligands_prepared 0.0000
33 H33 226.4146 156.2123 175.5649 H 778 ligands_prepared 0.0000
34 H34 224.7823 156.7362 175.9825 H 778 ligands_prepared 0.0000
35 H35 225.2025 156.5073 178.4286 H 778 ligands_prepared 0.0000
36 H36 225.8671 154.0606 178.6511 H 778 ligands_prepared 0.0000
37 H37 226.4793 154.0491 176.9525 H 778 ligands_prepared 0.0000
38 H38 222.2059 151.5409 178.9861 H 778 ligands_prepared 0.0000
39 H39 219.7157 151.6177 178.8560 H 778 ligands_prepared 0.0000
40 H40 216.6309 153.8893 176.8752 H 778 ligands_prepared 0.0000
41 H41 218.0434 154.8096 176.2352 H 778 ligands_prepared 0.0000
42 H42 219.6090 152.4830 175.0855 H 778 ligands_prepared 0.0000
43 H43 219.4601 151.2243 172.9495 H 778 ligands_prepared 0.0000
44 H44 217.2805 151.0363 171.7673 H 778 ligands_prepared 0.0000
45 H45 215.2545 152.1134 172.7187 H 778 ligands_prepared 0.0000
46 H46 215.4034 153.3920 174.8407 H 778 ligands_prepared 0.0000
47 H47 219.9814 154.5692 175.6956 H 778 ligands_prepared 0.0000
48 H48 222.4572 154.4830 175.8263 H 778 ligands_prepared 0.0000
@<TRIPOS>BOND
      1     1     2    1
      2     1    25    1
      3     1    26    1
      4     1    27    1
      5     3     2    1
      6     2     6    1
      7     2    28    1
      8     3     4    1
      9     3    29    1
     10     3    30    1
     11     4     5    1
     12     4    31    1
     13     4    32    1
     14     5     6    1
     15     5    33    1
     16     5    34    1
     17     6     7    1
     18     6    35    1
     19     7     8    1
     20     7    36    1
     21     7    37    1
     22     8     9    1
     23     9    10    2
     24     9    11    1
     25    11    12   ar
     26    11    24   ar
     27    12    13   ar
     28    12    38    1
     29    13    14   ar
     30    13    39    1
     31    14    15    1
     32    14    23   ar
     33    15    16    1
     34    16    17    1
     35    16    40    1
     36    16    41    1
     37    17    18   ar
     38    17    22   ar
     39    18    19   ar
     40    18    42    1
     41    19    20   ar
     42    19    43    1
     43    20    21   ar
     44    20    44    1
     45    21    22   ar
     46    21    45    1
     47    22    46    1
     48    23    24   ar
     49    23    47    1
     50    24    48    1
@<TRIPOS>MOLECULE
CHEMBL2381567_nacw_LIG
47 49 1 0 0
SMALL
USER_CHARGES

@<TRIPOS>ATOM
1 C1 219.3924 151.9039 173.8379 C.3 778 ligands_prepared 0.0000
2 N2 218.0764 151.5677 174.4681 N.4 778 ligands_prepared 1.0000
3 C3 217.0527 150.8503 173.4631 C.3 778 ligands_prepared 0.0000
4 C4 216.1179 152.1972 172.9716 C.3 778 ligands_prepared 0.0000
5 C5 216.0842 152.9463 174.3161 C.3 778 ligands_prepared 0.0000
6 C6 217.5346 152.9586 174.8221 C.3 778 ligands_prepared 0.0000
7 C7 217.6631 153.3411 176.2904 C.3 778 ligands_prepared 0.0000
8 O8 219.0287 153.5583 176.6357 O.3 778 ligands_prepared 0.0000
9 C9 219.4407 153.2197 177.8816 C.2 778 ligands_prepared 0.0000
10 O10 218.6608 153.1649 178.8123 O.2 778 ligands_prepared 0.0000
11 C11 220.8641 152.9296 177.9263 C.ar 778 ligands_prepared 0.0000
12 C12 221.4409 152.1502 178.9463 C.ar 778 ligands_prepared 0.0000
13 C13 222.7993 151.9021 178.9211 C.ar 778 ligands_prepared 0.0000
14 C14 223.5429 152.4593 177.8559 C.ar 778 ligands_prepared 0.0000
15 O15 224.8510 152.1971 177.8511 O.3 778 ligands_prepared 0.0000
16 C16 225.6256 152.6231 176.7000 C.3 778 ligands_prepared 0.0000
17 C17 225.7697 154.0919 176.9403 C.ar 778 ligands_prepared 0.0000
18 C18 226.3959 154.5489 178.1001 C.ar 778 ligands_prepared 0.0000
19 C19 226.5430 155.9177 178.3142 C.ar 778 ligands_prepared 0.0000
20 C20 226.0664 156.8264 177.3707 C.ar 778 ligands_prepared 0.0000
21 C21 225.4414 156.3684 176.2117 C.ar 778 ligands_prepared 0.0000
22 C22 225.2933 155.0005 175.9937 C.ar 778 ligands_prepared 0.0000
23 N23 223.0047 153.2212 176.8679 N.ar 778 ligands_prepared 0.0000
24 C24 221.6805 153.4487 176.9064 C.ar 778 ligands_prepared 0.0000
25 H25 219.9943 150.9908 173.6653 H 778 ligands_prepared 0.0000
26 H26 219.2662 152.4338 172.8779 H 778 ligands_prepared 0.0000
27 H27 219.9871 152.5544 174.5098 H 778 ligands_prepared 0.0000
28 H28 218.2496 150.9428 175.2969 H 778 ligands_prepared 0.0000
29 H29 217.5935 150.2936 172.6646 H 778 ligands_prepared 0.0000
30 H30 216.3309 150.1355 173.9109 H 778 ligands_prepared 0.0000
31 H31 216.5698 152.8138 172.1728 H 778 ligands_prepared 0.0000
32 H32 215.0949 151.9633 172.6219 H 778 ligands_prepared 0.0000
33 H33 215.3993 152.4530 175.0327 H 778 ligands_prepared 0.0000
34 H34 215.6962 153.9762 174.2007 H 778 ligands_prepared 0.0000
35 H35 218.1404 153.6924 174.2087 H 778 ligands_prepared 0.0000
36 H36 217.2336 154.3525 176.4870 H 778 ligands_prepared 0.0000
37 H37 217.2106 152.6256 177.0025 H 778 ligands_prepared 0.0000
38 H38 220.8130 151.7419 179.7479 H 778 ligands_prepared 0.0000
39 H39 223.2918 151.3018 179.6863 H 778 ligands_prepared 0.0000
40 H40 226.5895 152.0789 176.6858 H 778 ligands_prepared 0.0000
41 H41 225.0566 152.3724 175.7837 H 778 ligands_prepared 0.0000
42 H42 226.7709 153.8371 178.8374 H 778 ligands_prepared 0.0000
43 H43 227.0301 156.2760 179.2212 H 778 ligands_prepared 0.0000
44 H44 226.1834 157.8979 177.5397 H 778 ligands_prepared 0.0000
45 H45 225.0676 157.0796 175.4742 H 778 ligands_prepared 0.0000
46 H46 224.8067 154.6404 175.0862 H 778 ligands_prepared 0.0000
47 H47 221.2654 154.0700 176.0931 H 778 ligands_prepared 0.0000
@<TRIPOS>BOND
      1     1     2    1
      2     1    25    1
      3     1    26    1
      4     1    27    1
      5     2     3    1
      6     2     6    1
      7     2    28    1
      8     3     4    1
      9     3    29    1
     10     3    30    1
     11     4     5    1
     12     4    31    1
     13     4    32    1
     14     5     6    1
     15     5    33    1
     16     5    34    1
     17     6     7    1
     18     6    35    1
     19     7     8    1
     20     7    36    1
     21     7    37    1
     22     8     9    1
     23     9    10    2
     24     9    11    1
     25    11    12   ar
     26    11    24   ar
     27    12    13   ar
     28    12    38    1
     29    13    14   ar
     30    13    39    1
     31    14    15    1
     32    14    23   ar
     33    15    16    1
     34    16    17    1
     35    16    40    1
     36    16    41    1
     37    17    18   ar
     38    17    22   ar
     39    18    19   ar
     40    18    42    1
     41    19    20   ar
     42    19    43    1
     43    20    21   ar
     44    20    44    1
     45    21    22   ar
     46    21    45    1
     47    22    46    1
     48    23    24   ar
     49    24    47    1
@<TRIPOS>MOLECULE
CHEMBL2381568_ncw_LIG
34 35 1 0 0
SMALL
USER_CHARGES

@<TRIPOS>ATOM
1 C1 218.3896 150.7994 172.8405 C.3 778 ligands_prepared 0.0000
2 N2 217.8643 152.1998 172.7434 N.4 778 ligands_prepared 1.0000
3 C3 216.4026 152.1991 172.3242 C.3 778 ligands_prepared 0.0000
4 C4 215.5846 152.4942 173.6004 C.3 778 ligands_prepared 0.0000
5 C5 216.7326 152.4442 174.9212 C.3 778 ligands_prepared 0.0000
6 C6 217.9479 152.9123 174.1039 C.3 778 ligands_prepared 0.0000
7 C7 219.2510 152.5581 174.8193 C.3 778 ligands_prepared 0.0000
8 O8 219.2310 153.0813 176.1439 O.3 778 ligands_prepared 0.0000
9 C9 220.3012 152.8459 176.9412 C.2 778 ligands_prepared 0.0000
10 O10 221.3498 152.4482 176.4743 O.2 778 ligands_prepared 0.0000
11 C11 220.0225 153.1521 178.3451 C.ar 778 ligands_prepared 0.0000
12 C12 221.1002 153.5050 179.1644 C.ar 778 ligands_prepared 0.0000
13 C13 220.8742 153.8010 180.5047 C.ar 778 ligands_prepared 0.0000
14 C14 219.5791 153.7470 181.0206 C.ar 778 ligands_prepared 0.0000
15 C15 218.5057 153.3988 180.2004 C.ar 778 ligands_prepared 0.0000
16 C16 218.7230 153.1022 178.8574 C.ar 778 ligands_prepared 0.0000
17 H17 217.8329 150.2021 173.5860 H 778 ligands_prepared 0.0000
18 H18 218.3202 150.2804 171.8669 H 778 ligands_prepared 0.0000
19 H19 219.4571 150.8033 173.1374 H 778 ligands_prepared 0.0000
20 H20 218.4358 152.7260 172.0233 H 778 ligands_prepared 0.0000
21 H21 216.2206 152.9448 171.5217 H 778 ligands_prepared 0.0000
22 H22 216.1579 151.2014 171.8923 H 778 ligands_prepared 0.0000
23 H23 215.2022 153.5334 173.6150 H 778 ligands_prepared 0.0000
24 H24 214.6879 151.8497 173.6792 H 778 ligands_prepared 0.0000
25 H25 216.8987 151.4455 175.3748 H 778 ligands_prepared 0.0000
26 H26 216.5380 153.1239 175.7731 H 778 ligands_prepared 0.0000
27 H27 217.9032 154.0230 173.9324 H 778 ligands_prepared 0.0000
28 H28 219.3176 151.4599 175.0072 H 778 ligands_prepared 0.0000
29 H29 220.1626 152.8754 174.2759 H 778 ligands_prepared 0.0000
30 H30 222.1124 153.5441 178.7510 H 778 ligands_prepared 0.0000
31 H31 221.7116 154.0725 181.1502 H 778 ligands_prepared 0.0000
32 H32 219.4043 153.9771 182.0749 H 778 ligands_prepared 0.0000
33 H33 217.4945 153.3573 180.6091 H 778 ligands_prepared 0.0000
34 H34 217.8827 152.8297 178.2132 H 778 ligands_prepared 0.0000
@<TRIPOS>BOND
      1     1     2    1
      2     1    17    1
      3     1    18    1
      4     1    19    1
      5     2     3    1
      6     2     6    1
      7     2    20    1
      8     3     4    1
      9     3    21    1
     10     3    22    1
     11     4     5    1
     12     4    23    1
     13     4    24    1
     14     5     6    1
     15     5    25    1
     16     5    26    1
     17     6     7    1
     18     6    27    1
     19     7     8    1
     20     7    28    1
     21     7    29    1
     22     8     9    1
     23     9    10    2
     24     9    11    1
     25    11    12   ar
     26    11    16   ar
     27    12    13   ar
     28    12    30    1
     29    13    14   ar
     30    13    31    1
     31    14    15   ar
     32    14    32    1
     33    15    16   ar
     34    15    33    1
     35    16    34    1
@<TRIPOS>MOLECULE
CHEMBL2381569_nacw_LIG
36 37 1 0 0
SMALL
USER_CHARGES

@<TRIPOS>ATOM
1 C1 219.3521 153.1025 176.2302 C.3 778 ligands_prepared 0.0000
2 N2 219.6161 152.7187 177.6503 N.4 778 ligands_prepared 1.0000
3 C3 218.4991 153.0988 178.6180 C.3 778 ligands_prepared 0.0000
4 C4 219.1675 153.5480 179.8658 C.3 778 ligands_prepared 0.0000
5 C5 220.8898 153.2706 179.6805 C.3 778 ligands_prepared 0.0000
6 C6 220.9005 153.3942 178.1493 C.3 778 ligands_prepared 0.0000
7 C7 222.1816 152.8027 177.5435 C.3 778 ligands_prepared 0.0000
8 O8 223.2537 153.6980 177.8148 O.3 778 ligands_prepared 0.0000
9 C9 224.3500 153.6328 177.0169 C.2 778 ligands_prepared 0.0000
10 O10 224.6043 152.6473 176.3645 O.2 778 ligands_prepared 0.0000
11 C11 225.1195 154.8850 177.0747 C.ar 778 ligands_prepared 0.0000
12 C12 225.0092 155.7732 175.9971 C.ar 778 ligands_prepared 0.0000
13 C13 225.7224 156.9693 176.0065 C.ar 778 ligands_prepared 0.0000
14 C14 226.5427 157.2920 177.0824 C.ar 778 ligands_prepared 0.0000
15 C15 226.6442 156.3912 178.1527 C.ar 778 ligands_prepared 0.0000
16 N16 227.4937 156.7122 179.2729 N.pl3 778 ligands_prepared 0.0000
17 O17 227.9166 155.8069 179.9789 O.2 778 ligands_prepared 0.0000
18 O18 227.7738 157.8842 179.4889 O.2 778 ligands_prepared 0.0000
19 C19 225.9386 155.1833 178.1617 C.ar 778 ligands_prepared 0.0000
20 H20 218.4632 152.5790 175.8289 H 778 ligands_prepared 0.0000
21 H21 220.2071 152.8080 175.5872 H 778 ligands_prepared 0.0000
22 H22 219.2084 154.1910 176.1091 H 778 ligands_prepared 0.0000
23 H23 219.7436 151.6714 177.6961 H 778 ligands_prepared 0.0000
24 H24 217.8432 152.2213 178.8163 H 778 ligands_prepared 0.0000
25 H25 217.8603 153.8771 178.1486 H 778 ligands_prepared 0.0000
26 H26 219.0701 154.6454 179.9844 H 778 ligands_prepared 0.0000
27 H27 218.6724 153.1074 180.7515 H 778 ligands_prepared 0.0000
28 H28 221.2615 152.2799 180.0112 H 778 ligands_prepared 0.0000
29 H29 221.5664 154.0105 180.1486 H 778 ligands_prepared 0.0000
30 H30 220.8241 154.4778 177.8485 H 778 ligands_prepared 0.0000
31 H31 222.5258 151.8789 178.0568 H 778 ligands_prepared 0.0000
32 H32 222.1035 152.6202 176.4534 H 778 ligands_prepared 0.0000
33 H33 224.3614 155.5202 175.1481 H 778 ligands_prepared 0.0000
34 H34 225.6341 157.6586 175.1596 H 778 ligands_prepared 0.0000
35 H35 227.1005 158.2392 177.0914 H 778 ligands_prepared 0.0000
36 H36 226.0322 154.4850 179.0061 H 778 ligands_prepared 0.0000
@<TRIPOS>BOND
      1     1     2    1
      2     1    20    1
      3     1    21    1
      4     1    22    1
      5     2     3    1
      6     2     6    1
      7     2    23    1
      8     3     4    1
      9     3    24    1
     10     3    25    1
     11     4     5    1
     12     4    26    1
     13     4    27    1
     14     5     6    1
     15     5    28    1
     16     5    29    1
     17     6     7    1
     18     6    30    1
     19     7     8    1
     20     7    31    1
     21     7    32    1
     22     8     9    1
     23     9    10    2
     24     9    11    1
     25    11    12   ar
     26    11    19   ar
     27    12    13   ar
     28    12    33    1
     29    13    14   ar
     30    13    34    1
     31    14    15   ar
     32    14    35    1
     33    15    16    1
     34    15    19   ar
     35    16    17    2
     36    16    18    2
     37    19    36    1
@<TRIPOS>MOLECULE
CHEMBL2381570_ncw_LIG
36 37 1 0 0
SMALL
USER_CHARGES

@<TRIPOS>ATOM
1 C1 217.3560 149.8700 174.2135 C.3 778 ligands_prepared 0.0000
2 N2 217.0649 151.2950 174.5569 N.4 778 ligands_prepared 1.0000
3 C3 215.9026 152.0651 173.5810 C.3 778 ligands_prepared 0.0000
4 C4 216.6565 152.6126 172.3686 C.3 778 ligands_prepared 0.0000
5 C5 218.1489 152.4851 172.7085 C.3 778 ligands_prepared 0.0000
6 C6 218.2467 152.2075 174.2180 C.3 778 ligands_prepared 0.0000
7 C7 218.1922 153.4749 175.0830 C.3 778 ligands_prepared 0.0000
8 O8 218.4162 153.1003 176.4343 O.3 778 ligands_prepared 0.0000
9 C9 219.6760 152.7217 176.7780 C.2 778 ligands_prepared 0.0000
10 O10 220.4163 152.2025 175.9748 O.2 778 ligands_prepared 0.0000
11 C11 219.9650 153.0540 178.1827 C.ar 778 ligands_prepared 0.0000
12 C12 221.2997 153.0685 178.5875 C.ar 778 ligands_prepared 0.0000
13 C13 221.6067 153.4063 179.9057 C.ar 778 ligands_prepared 0.0000
14 C14 220.6000 153.7211 180.8065 C.ar 778 ligands_prepared 0.0000
15 C15 219.2514 153.6915 180.3968 C.ar 778 ligands_prepared 0.0000
16 N16 218.2289 153.8851 181.3318 N.pl3 778 ligands_prepared 0.0000
17 C17 218.9349 153.3619 179.0668 C.ar 778 ligands_prepared 0.0000
18 H18 216.4819 149.2302 174.4458 H 778 ligands_prepared 0.0000
19 H19 217.5930 149.7374 173.1407 H 778 ligands_prepared 0.0000
20 H20 218.2161 149.4911 174.8006 H 778 ligands_prepared 0.0000
21 H21 216.8453 151.3701 175.5870 H 778 ligands_prepared 0.0000
22 H22 215.4948 152.8647 174.2387 H 778 ligands_prepared 0.0000
23 H23 215.0485 151.4199 173.2795 H 778 ligands_prepared 0.0000
24 H24 216.3961 152.0562 171.4479 H 778 ligands_prepared 0.0000
25 H25 216.3819 153.6665 172.1642 H 778 ligands_prepared 0.0000
26 H26 218.6187 151.6612 172.1331 H 778 ligands_prepared 0.0000
27 H27 218.7073 153.3937 172.4113 H 778 ligands_prepared 0.0000
28 H28 219.2011 151.6504 174.4348 H 778 ligands_prepared 0.0000
29 H29 219.0304 154.1793 174.8891 H 778 ligands_prepared 0.0000
30 H30 217.2384 154.0315 174.9819 H 778 ligands_prepared 0.0000
31 H31 222.0937 152.8233 177.8798 H 778 ligands_prepared 0.0000
32 H32 222.6533 153.4246 180.2265 H 778 ligands_prepared 0.0000
33 H33 220.8467 153.9922 181.8344 H 778 ligands_prepared 0.0000
34 H34 217.2958 153.6233 181.0346 H 778 ligands_prepared 0.0000
35 H35 218.4178 153.5713 182.2761 H 778 ligands_prepared 0.0000
36 H36 217.8930 153.3570 178.7403 H 778 ligands_prepared 0.0000
@<TRIPOS>BOND
      1     1     2    1
      2     1    18    1
      3     1    19    1
      4     1    20    1
      5     3     2    1
      6     2     6    1
      7     2    21    1
      8     3     4    1
      9     3    22    1
     10     3    23    1
     11     4     5    1
     12     4    24    1
     13     4    25    1
     14     5     6    1
     15     5    26    1
     16     5    27    1
     17     6     7    1
     18     6    28    1
     19     7     8    1
     20     7    29    1
     21     7    30    1
     22     8     9    1
     23     9    10    2
     24     9    11    1
     25    11    12   ar
     26    11    17   ar
     27    12    13   ar
     28    12    31    1
     29    13    14   ar
     30    13    32    1
     31    14    15   ar
     32    14    33    1
     33    15    16    1
     34    15    17   ar
     35    16    34    1
     36    16    35    1
     37    17    36    1
@<TRIPOS>MOLECULE
CHEMBL2381571_nacw_LIG
34 35 1 0 0
SMALL
USER_CHARGES

@<TRIPOS>ATOM
1 C1 225.1013 156.0349 176.3526 C.3 778 ligands_prepared 0.0000
2 N2 225.0974 154.9318 177.3662 N.4 778 ligands_prepared 1.0000
3 C3 226.3214 154.1786 177.6701 C.3 778 ligands_prepared 0.0000
4 C4 225.8861 152.7169 177.5076 C.3 778 ligands_prepared 0.0000
5 C5 224.7767 152.7037 176.4433 C.3 778 ligands_prepared 0.0000
6 C6 223.7997 153.8161 176.8424 C.3 778 ligands_prepared 0.0000
7 C7 222.7088 153.3923 177.8190 C.3 778 ligands_prepared 0.0000
8 O8 221.6000 152.8536 177.1124 O.3 778 ligands_prepared 0.0000
9 C9 220.3430 153.1776 177.4985 C.2 778 ligands_prepared 0.0000
10 O10 220.0945 153.6174 178.5989 O.2 778 ligands_prepared 0.0000
11 C11 219.4008 152.9338 176.3954 C.ar 778 ligands_prepared 0.0000
12 C12 218.0897 153.3992 176.5270 C.ar 778 ligands_prepared 0.0000
13 C13 217.1827 153.2037 175.4894 C.ar 778 ligands_prepared 0.0000
14 C14 217.6116 152.5408 174.3452 C.ar 778 ligands_prepared 0.0000
15 Br15 216.3714 152.2654 172.9293 Br 778 ligands_prepared 0.0000
16 C16 218.9083 152.0662 174.1999 C.ar 778 ligands_prepared 0.0000
17 C17 219.8130 152.2659 175.2396 C.ar 778 ligands_prepared 0.0000
18 H18 225.4388 155.6764 175.3649 H 778 ligands_prepared 0.0000
19 H19 225.7617 156.8643 176.6704 H 778 ligands_prepared 0.0000
20 H20 224.0855 156.4600 176.2366 H 778 ligands_prepared 0.0000
21 H21 224.8446 155.3315 178.3051 H 778 ligands_prepared 0.0000
22 H22 226.7385 154.3913 178.6778 H 778 ligands_prepared 0.0000
23 H23 227.1126 154.4587 176.9392 H 778 ligands_prepared 0.0000
24 H24 225.5256 152.2922 178.4637 H 778 ligands_prepared 0.0000
25 H25 226.7427 152.0835 177.2051 H 778 ligands_prepared 0.0000
26 H26 225.1834 152.8803 175.4288 H 778 ligands_prepared 0.0000
27 H27 224.2858 151.7148 176.3971 H 778 ligands_prepared 0.0000
28 H28 223.2864 154.2156 175.9144 H 778 ligands_prepared 0.0000
29 H29 223.0205 152.5490 178.4750 H 778 ligands_prepared 0.0000
30 H30 222.4066 154.2443 178.4662 H 778 ligands_prepared 0.0000
31 H31 217.7806 153.9166 177.4413 H 778 ligands_prepared 0.0000
32 H32 216.1583 153.5743 175.5936 H 778 ligands_prepared 0.0000
33 H33 219.2381 151.5460 173.2941 H 778 ligands_prepared 0.0000
34 H34 220.8403 151.8956 175.1494 H 778 ligands_prepared 0.0000
@<TRIPOS>BOND
      1     1     2    1
      2     1    18    1
      3     1    19    1
      4     1    20    1
      5     2     3    1
      6     2     6    1
      7     2    21    1
      8     3     4    1
      9     3    22    1
     10     3    23    1
     11     4     5    1
     12     4    24    1
     13     4    25    1
     14     5     6    1
     15     5    26    1
     16     5    27    1
     17     6     7    1
     18     6    28    1
     19     7     8    1
     20     7    29    1
     21     7    30    1
     22     8     9    1
     23     9    10    2
     24     9    11    1
     25    11    12   ar
     26    11    17   ar
     27    12    13   ar
     28    12    31    1
     29    13    14   ar
     30    13    32    1
     31    14    15    1
     32    14    16   ar
     33    16    17   ar
     34    16    33    1
     35    17    34    1
@<TRIPOS>MOLECULE
CHEMBL2407115_LIG
38 39 1 0 0
SMALL
USER_CHARGES

@<TRIPOS>ATOM
1 C1 220.5923 153.9998 178.8678 C.3 778 ligands_prepared 0.0000
2 C2 219.5016 152.9435 179.0882 C.3 778 ligands_prepared 0.0000
3 C3 218.5145 153.3998 180.1696 C.3 778 ligands_prepared 0.0000
4 N4 218.7694 152.7419 177.8205 N.am 778 ligands_prepared 0.0000
5 C5 219.4076 152.4152 176.6625 C.2 778 ligands_prepared 0.0000
6 O6 220.6296 152.2914 176.6280 O.2 778 ligands_prepared 0.0000
7 C7 218.5337 152.1989 175.4391 C.3 778 ligands_prepared 0.0000
8 C8 217.4580 153.2927 175.3771 C.3 778 ligands_prepared 0.0000
9 C9 216.6844 153.2543 174.0481 C.3 778 ligands_prepared 0.0000
10 C10 215.8730 151.9492 173.9056 C.3 778 ligands_prepared 0.0000
11 N11 216.7582 150.7418 173.8198 N.4 778 ligands_prepared 1.0000
12 C12 217.8319 150.8770 172.7640 C.3 778 ligands_prepared 0.0000
13 C13 218.6237 152.1947 172.8992 C.3 778 ligands_prepared 0.0000
14 C14 217.6777 153.4015 172.8893 C.3 778 ligands_prepared 0.0000
15 C15 219.4443 152.2155 174.1998 C.3 778 ligands_prepared 0.0000
16 H16 220.1684 154.9745 178.5934 H 778 ligands_prepared 0.0000
17 H17 221.2767 153.7066 178.0626 H 778 ligands_prepared 0.0000
18 H18 221.1887 154.1443 179.7761 H 778 ligands_prepared 0.0000
19 H19 219.9722 151.9690 179.3927 H 778 ligands_prepared 0.0000
20 H20 218.0839 154.3839 179.9465 H 778 ligands_prepared 0.0000
21 H21 219.0124 153.4717 181.1450 H 778 ligands_prepared 0.0000
22 H22 217.6791 152.6970 180.2746 H 778 ligands_prepared 0.0000
23 H23 217.7577 152.8300 177.8590 H 778 ligands_prepared 0.0000
24 H24 218.0247 151.2024 175.5070 H 778 ligands_prepared 0.0000
25 H25 217.9271 154.2912 175.4979 H 778 ligands_prepared 0.0000
26 H26 216.7606 153.1878 176.2318 H 778 ligands_prepared 0.0000
27 H27 215.9704 154.1162 174.0326 H 778 ligands_prepared 0.0000
28 H28 215.2383 151.9806 172.9880 H 778 ligands_prepared 0.0000
29 H29 215.1671 151.8142 174.7572 H 778 ligands_prepared 0.0000
30 H30 216.1717 149.9025 173.6149 H 778 ligands_prepared 0.0000
31 H31 217.1995 150.5707 174.7522 H 778 ligands_prepared 0.0000
32 H32 218.5022 149.9891 172.8186 H 778 ligands_prepared 0.0000
33 H33 217.3364 150.8176 171.7661 H 778 ligands_prepared 0.0000
34 H34 219.3308 152.2730 172.0353 H 778 ligands_prepared 0.0000
35 H35 217.1587 153.5062 171.9179 H 778 ligands_prepared 0.0000
36 H36 218.2566 154.3413 172.9976 H 778 ligands_prepared 0.0000
37 H37 220.1432 151.3574 174.2254 H 778 ligands_prepared 0.0000
38 H38 220.0849 153.1223 174.2112 H 778 ligands_prepared 0.0000
@<TRIPOS>BOND
      1     1     2    1
      2     1    16    1
      3     1    17    1
      4     1    18    1
      5     2     3    1
      6     2     4    1
      7     2    19    1
      8     3    20    1
      9     3    21    1
     10     3    22    1
     11     4     5   am
     12     4    23    1
     13     5     6    2
     14     5     7    1
     15     8     7    1
     16     7    15    1
     17     7    24    1
     18     8     9    1
     19     8    25    1
     20     8    26    1
     21     9    10    1
     22     9    14    1
     23     9    27    1
     24    10    11    1
     25    10    28    1
     26    10    29    1
     27    11    12    1
     28    11    30    1
     29    11    31    1
     30    12    13    1
     31    12    32    1
     32    12    33    1
     33    13    14    1
     34    13    15    1
     35    13    34    1
     36    14    35    1
     37    14    36    1
     38    15    37    1
     39    15    38    1
@<TRIPOS>MOLECULE
CHEMBL2409472_LIG
34 36 1 0 0
SMALL
USER_CHARGES

@<TRIPOS>ATOM
1 O1 221.0182 152.2061 176.9095 O.2 778 ligands_prepared 0.0000
2 C2 219.9132 152.6954 176.8031 C.2 778 ligands_prepared 0.0000
3 C3 219.4086 153.6697 177.8036 C.3 778 ligands_prepared 0.0000
4 C4 220.2907 153.9999 178.9982 C.3 778 ligands_prepared 0.0000
5 C5 219.0612 153.1659 179.1953 C.3 778 ligands_prepared 0.0000
6 C6 218.9700 152.3080 175.6807 C.3 778 ligands_prepared 0.0000
7 C7 217.7095 153.2474 175.6567 C.3 778 ligands_prepared 0.0000
8 C8 216.8705 153.1935 174.3664 C.3 778 ligands_prepared 0.0000
9 C9 216.1004 151.8642 174.2696 C.3 778 ligands_prepared 0.0000
10 N10 217.0609 150.6988 174.1853 N.4 778 ligands_prepared 1.0000
11 C11 218.0077 150.8617 173.0183 C.3 778 ligands_prepared 0.0000
12 C12 218.7635 152.2023 173.0964 C.3 778 ligands_prepared 0.0000
13 C13 217.7437 153.3445 173.1164 C.3 778 ligands_prepared 0.0000
14 C14 219.6901 152.2645 174.3249 C.3 778 ligands_prepared 0.0000
15 H15 218.7936 154.4759 177.3783 H 778 ligands_prepared 0.0000
16 H16 220.3241 155.0297 179.3539 H 778 ligands_prepared 0.0000
17 H17 221.2767 153.5431 179.0733 H 778 ligands_prepared 0.0000
18 H18 219.1566 152.1010 179.4096 H 778 ligands_prepared 0.0000
19 H19 218.1883 153.5807 179.6988 H 778 ligands_prepared 0.0000
20 H20 218.6267 151.2553 175.9050 H 778 ligands_prepared 0.0000
21 H21 217.0744 153.0286 176.5419 H 778 ligands_prepared 0.0000
22 H22 218.0340 154.2954 175.8297 H 778 ligands_prepared 0.0000
23 H23 216.1159 154.0211 174.3897 H 778 ligands_prepared 0.0000
24 H24 215.4337 151.8558 173.3774 H 778 ligands_prepared 0.0000
25 H25 215.4396 151.7158 175.1556 H 778 ligands_prepared 0.0000
26 H26 217.6097 150.6388 175.0718 H 778 ligands_prepared 0.0000
27 H27 216.5324 149.8028 174.0990 H 778 ligands_prepared 0.0000
28 H28 218.7160 149.9996 173.0164 H 778 ligands_prepared 0.0000
29 H29 217.4282 150.7939 172.0690 H 778 ligands_prepared 0.0000
30 H30 219.3891 152.2821 172.1706 H 778 ligands_prepared 0.0000
31 H31 217.1225 153.3374 172.1998 H 778 ligands_prepared 0.0000
32 H32 218.2564 154.3248 173.1082 H 778 ligands_prepared 0.0000
33 H33 220.3993 151.4121 174.3154 H 778 ligands_prepared 0.0000
34 H34 220.3391 153.1633 174.2360 H 778 ligands_prepared 0.0000
@<TRIPOS>BOND
      1     1     2    2
      2     2     3    1
      3     2     6    1
      4     3     4    1
      5     3     5    1
      6     3    15    1
      7     4     5    1
      8     4    16    1
      9     4    17    1
     10     5    18    1
     11     5    19    1
     12     7     6    1
     13     6    14    1
     14     6    20    1
     15     7     8    1
     16     7    21    1
     17     7    22    1
     18     8     9    1
     19     8    13    1
     20     8    23    1
     21     9    10    1
     22     9    24    1
     23     9    25    1
     24    10    11    1
     25    10    26    1
     26    10    27    1
     27    11    12    1
     28    11    28    1
     29    11    29    1
     30    12    13    1
     31    12    14    1
     32    12    30    1
     33    13    31    1
     34    13    32    1
     35    14    33    1
     36    14    34    1
@<TRIPOS>MOLECULE
CHEMBL2409473_LIG
34 36 1 0 0
SMALL
USER_CHARGES

@<TRIPOS>ATOM
1 O1 221.5570 152.5070 176.6351 O.2 778 ligands_prepared 0.0000
2 C2 220.3707 152.6508 176.8502 C.2 778 ligands_prepared 0.0000
3 C3 219.9103 153.0958 178.1554 C.2 778 ligands_prepared 0.0000
4 C4 218.6928 153.1020 178.7928 C.2 778 ligands_prepared 0.0000
5 C5 218.9115 153.6904 180.0825 C.2 778 ligands_prepared 0.0000
6 C6 220.2479 154.0036 180.1426 C.2 778 ligands_prepared 0.0000
7 O7 220.8851 153.6524 178.9814 O.3 778 ligands_prepared 0.0000
8 C8 219.3199 152.3936 175.7952 C.3 778 ligands_prepared 0.0000
9 C9 218.3054 153.5498 175.8519 C.3 778 ligands_prepared 0.0000
10 C10 217.2902 153.4718 174.6991 C.3 778 ligands_prepared 0.0000
11 C11 216.4002 152.2169 174.8239 C.3 778 ligands_prepared 0.0000
12 N12 217.1959 150.9484 174.6779 N.4 778 ligands_prepared 1.0000
13 C13 218.0344 150.9392 173.4203 C.3 778 ligands_prepared 0.0000
14 C14 218.9111 152.2049 173.2949 C.3 778 ligands_prepared 0.0000
15 C15 218.0466 153.4706 173.3658 C.3 778 ligands_prepared 0.0000
16 C16 219.9684 152.2643 174.4099 C.3 778 ligands_prepared 0.0000
17 H17 217.7509 152.7403 178.4142 H 778 ligands_prepared 0.0000
18 H18 218.1628 153.8470 180.8342 H 778 ligands_prepared 0.0000
19 H19 220.9002 154.4478 180.8679 H 778 ligands_prepared 0.0000
20 H20 218.7922 151.4327 176.0327 H 778 ligands_prepared 0.0000
21 H21 218.8349 154.5248 175.8009 H 778 ligands_prepared 0.0000
22 H22 217.7751 153.5469 176.8264 H 778 ligands_prepared 0.0000
23 H23 216.6328 154.3777 174.7497 H 778 ligands_prepared 0.0000
24 H24 215.6036 152.2188 174.0414 H 778 ligands_prepared 0.0000
25 H25 215.8616 152.1922 175.7982 H 778 ligands_prepared 0.0000
26 H26 216.5438 150.1326 174.6674 H 778 ligands_prepared 0.0000
27 H27 217.8101 150.8230 175.5133 H 778 ligands_prepared 0.0000
28 H28 218.6540 150.0129 173.4068 H 778 ligands_prepared 0.0000
29 H29 217.3427 150.8522 172.5499 H 778 ligands_prepared 0.0000
30 H30 219.4373 152.1733 172.3083 H 778 ligands_prepared 0.0000
31 H31 218.6860 154.3744 173.2890 H 778 ligands_prepared 0.0000
32 H32 217.3579 153.5464 172.5035 H 778 ligands_prepared 0.0000
33 H33 220.6462 153.1232 174.2253 H 778 ligands_prepared 0.0000
34 H34 220.6141 151.3649 174.3771 H 778 ligands_prepared 0.0000
@<TRIPOS>BOND
      1     1     2    2
      2     2     3    1
      3     2     8    1
      4     3     4    2
      5     3     7    1
      6     4     5    1
      7     4    17    1
      8     5     6    2
      9     5    18    1
     10     6     7    1
     11     6    19    1
     12     9     8    1
     13     8    16    1
     14     8    20    1
     15     9    10    1
     16     9    21    1
     17     9    22    1
     18    10    11    1
     19    10    15    1
     20    10    23    1
     21    11    12    1
     22    11    24    1
     23    11    25    1
     24    12    13    1
     25    12    26    1
     26    12    27    1
     27    13    14    1
     28    13    28    1
     29    13    29    1
     30    14    15    1
     31    14    16    1
     32    14    30    1
     33    15    31    1
     34    15    32    1
     35    16    33    1
     36    16    34    1
@<TRIPOS>MOLECULE
CHEMBL2409475_LIG
32 33 1 0 0
SMALL
USER_CHARGES

@<TRIPOS>ATOM
1 C1 221.3989 152.2177 178.4151 C.3 778 ligands_prepared 0.0000
2 N2 220.6100 152.0234 177.1963 N.am 778 ligands_prepared 0.0000
3 C3 219.4060 152.6432 177.0411 C.2 778 ligands_prepared 0.0000
4 O4 218.9818 153.4019 177.9087 O.2 778 ligands_prepared 0.0000
5 C5 218.6403 152.3653 175.7556 C.3 778 ligands_prepared 0.0000
6 C6 217.4508 153.3341 175.6570 C.3 778 ligands_prepared 0.0000
7 C7 216.7603 153.2701 174.2852 C.3 778 ligands_prepared 0.0000
8 C8 216.0930 151.8969 174.0628 C.3 778 ligands_prepared 0.0000
9 N9 216.6950 151.1450 172.8981 N.4 778 ligands_prepared 1.0000
10 C10 218.2025 151.0728 172.9786 C.3 778 ligands_prepared 0.0000
11 C11 218.8500 152.4533 173.2135 C.3 778 ligands_prepared 0.0000
12 C12 217.7913 153.5598 173.1896 C.3 778 ligands_prepared 0.0000
13 C13 219.5945 152.4995 174.5591 C.3 778 ligands_prepared 0.0000
14 H14 221.3635 153.2716 178.7507 H 778 ligands_prepared 0.0000
15 H15 221.0211 151.5868 179.2411 H 778 ligands_prepared 0.0000
16 H16 222.4538 151.9489 178.2268 H 778 ligands_prepared 0.0000
17 H17 220.9819 151.3850 176.5023 H 778 ligands_prepared 0.0000
18 H18 218.2565 151.3106 175.7901 H 778 ligands_prepared 0.0000
19 H19 216.7103 153.1211 176.4542 H 778 ligands_prepared 0.0000
20 H20 217.7945 154.3749 175.8394 H 778 ligands_prepared 0.0000
21 H21 215.9637 154.0570 174.2585 H 778 ligands_prepared 0.0000
22 H22 216.1582 151.2586 174.9738 H 778 ligands_prepared 0.0000
23 H23 215.0021 152.0211 173.8581 H 778 ligands_prepared 0.0000
24 H24 216.2989 150.1767 172.8633 H 778 ligands_prepared 0.0000
25 H25 216.4150 151.6068 172.0046 H 778 ligands_prepared 0.0000
26 H26 218.5680 150.6285 172.0212 H 778 ligands_prepared 0.0000
27 H27 218.4844 150.3500 173.7787 H 778 ligands_prepared 0.0000
28 H28 219.5933 152.6383 172.3959 H 778 ligands_prepared 0.0000
29 H29 217.3159 153.6512 172.1951 H 778 ligands_prepared 0.0000
30 H30 218.2651 154.5484 173.3634 H 778 ligands_prepared 0.0000
31 H31 220.3632 151.7010 174.6001 H 778 ligands_prepared 0.0000
32 H32 220.1584 153.4538 174.6314 H 778 ligands_prepared 0.0000
@<TRIPOS>BOND
      1     1     2    1
      2     1    14    1
      3     1    15    1
      4     1    16    1
      5     2     3   am
      6     2    17    1
      7     3     4    2
      8     3     5    1
      9     6     5    1
     10     5    13    1
     11     5    18    1
     12     6     7    1
     13     6    19    1
     14     6    20    1
     15     7     8    1
     16     7    12    1
     17     7    21    1
     18     8     9    1
     19     8    22    1
     20     8    23    1
     21     9    10    1
     22     9    24    1
     23     9    25    1
     24    10    11    1
     25    10    26    1
     26    10    27    1
     27    11    12    1
     28    11    13    1
     29    11    28    1
     30    12    29    1
     31    12    30    1
     32    13    31    1
     33    13    32    1
@<TRIPOS>MOLECULE
CHEMBL2409476_LIG
38 39 1 0 0
SMALL
USER_CHARGES

@<TRIPOS>ATOM
1 C1 218.5320 153.3994 180.1059 C.3 778 ligands_prepared 0.0000
2 C2 219.9732 153.7262 179.7287 C.3 778 ligands_prepared 0.0000
3 C3 220.6116 152.5371 178.9889 C.3 778 ligands_prepared 0.0000
4 N4 219.8232 152.1994 177.7953 N.am 778 ligands_prepared 0.0000
5 C5 219.5566 153.1244 176.8321 C.2 778 ligands_prepared 0.0000
6 O6 220.0202 154.2619 176.9031 O.2 778 ligands_prepared 0.0000
7 C7 218.7113 152.6589 175.6576 C.3 778 ligands_prepared 0.0000
8 C8 217.4899 153.5754 175.5043 C.3 778 ligands_prepared 0.0000
9 C9 216.7260 153.2997 174.1981 C.3 778 ligands_prepared 0.0000
10 C10 216.1012 151.8882 174.1990 C.3 778 ligands_prepared 0.0000
11 N11 216.6757 151.0059 173.1132 N.4 778 ligands_prepared 1.0000
12 C12 218.1868 150.9855 173.1405 C.3 778 ligands_prepared 0.0000
13 C13 218.7883 152.4070 173.1275 C.3 778 ligands_prepared 0.0000
14 C14 217.6841 153.4642 173.0115 C.3 778 ligands_prepared 0.0000
15 C15 219.6024 152.6708 174.4042 C.3 778 ligands_prepared 0.0000
16 H16 217.9117 153.2356 179.2170 H 778 ligands_prepared 0.0000
17 H17 218.0761 154.2203 180.6754 H 778 ligands_prepared 0.0000
18 H18 218.4676 152.4943 180.7235 H 778 ligands_prepared 0.0000
19 H19 220.5647 153.9772 180.6295 H 778 ligands_prepared 0.0000
20 H20 220.0105 154.6305 179.0914 H 778 ligands_prepared 0.0000
21 H21 221.6620 152.7723 178.7004 H 778 ligands_prepared 0.0000
22 H22 220.6527 151.6409 179.6537 H 778 ligands_prepared 0.0000
23 H23 219.4063 151.2721 177.7702 H 778 ligands_prepared 0.0000
24 H24 218.3519 151.6136 175.8454 H 778 ligands_prepared 0.0000
25 H25 216.8155 153.4552 176.3757 H 778 ligands_prepared 0.0000
26 H26 217.8111 154.6390 175.5212 H 778 ligands_prepared 0.0000
27 H27 215.9006 154.0502 174.1099 H 778 ligands_prepared 0.0000
28 H28 214.9979 151.9470 174.0363 H 778 ligands_prepared 0.0000
29 H29 216.2357 151.3831 175.1825 H 778 ligands_prepared 0.0000
30 H30 216.3510 151.3456 172.1798 H 778 ligands_prepared 0.0000
31 H31 216.3077 150.0323 173.2160 H 778 ligands_prepared 0.0000
32 H32 218.5232 150.4069 174.0302 H 778 ligands_prepared 0.0000
33 H33 218.5361 150.4032 172.2542 H 778 ligands_prepared 0.0000
34 H34 219.4750 152.4938 172.2468 H 778 ligands_prepared 0.0000
35 H35 218.1248 154.4822 173.0127 H 778 ligands_prepared 0.0000
36 H36 217.1517 153.3956 172.0433 H 778 ligands_prepared 0.0000
37 H37 220.4114 151.9201 174.4999 H 778 ligands_prepared 0.0000
38 H38 220.1160 153.6504 174.3105 H 778 ligands_prepared 0.0000
@<TRIPOS>BOND
      1     1     2    1
      2     1    16    1
      3     1    17    1
      4     1    18    1
      5     2     3    1
      6     2    19    1
      7     2    20    1
      8     3     4    1
      9     3    21    1
     10     3    22    1
     11     4     5   am
     12     4    23    1
     13     5     6    2
     14     5     7    1
     15     8     7    1
     16     7    15    1
     17     7    24    1
     18     8     9    1
     19     8    25    1
     20     8    26    1
     21     9    10    1
     22     9    14    1
     23     9    27    1
     24    10    11    1
     25    10    28    1
     26    10    29    1
     27    11    12    1
     28    11    30    1
     29    11    31    1
     30    12    13    1
     31    12    32    1
     32    12    33    1
     33    13    14    1
     34    13    15    1
     35    13    34    1
     36    14    35    1
     37    14    36    1
     38    15    37    1
     39    15    38    1
@<TRIPOS>MOLECULE
CHEMBL2435282_LIG
34 36 1 0 0
SMALL
USER_CHARGES

@<TRIPOS>ATOM
1 N1 228.6971 157.6610 175.5499 N.1 778 ligands_prepared 0.0000
2 C2 228.1248 157.1245 176.4043 C.1 778 ligands_prepared 0.0000
3 C3 227.4204 156.4414 177.4277 C.2 778 ligands_prepared 0.0000
4 C4 226.7812 155.2781 177.2171 C.2 778 ligands_prepared 0.0000
5 C5 226.7464 154.5852 175.8892 C.3 778 ligands_prepared 0.0000
6 N6 225.9445 153.3067 176.0026 N.4 778 ligands_prepared 1.0000
7 C7 226.5950 152.4123 177.0410 C.3 778 ligands_prepared 0.0000
8 C8 226.6564 153.1286 178.3994 C.3 778 ligands_prepared 0.0000
9 C9 226.0252 154.5273 178.2768 C.3 778 ligands_prepared 0.0000
10 C10 224.5690 154.3854 177.7989 C.3 778 ligands_prepared 0.0000
11 C11 224.5360 153.6512 176.4492 C.3 778 ligands_prepared 0.0000
12 C12 227.4470 157.1131 178.7386 C.ar 778 ligands_prepared 0.0000
13 C13 227.7520 156.3796 179.8857 C.ar 778 ligands_prepared 0.0000
14 C14 227.7848 157.0195 181.1220 C.ar 778 ligands_prepared 0.0000
15 C15 227.5145 158.3842 181.2095 C.ar 778 ligands_prepared 0.0000
16 C16 227.1995 159.1108 180.0625 C.ar 778 ligands_prepared 0.0000
17 C17 227.1649 158.4773 178.8223 C.ar 778 ligands_prepared 0.0000
18 H18 227.7781 154.3430 175.5212 H 778 ligands_prepared 0.0000
19 H19 226.2932 155.2346 175.0944 H 778 ligands_prepared 0.0000
20 H20 225.9178 152.8166 175.0685 H 778 ligands_prepared 0.0000
21 H21 226.0151 151.4635 177.1074 H 778 ligands_prepared 0.0000
22 H22 227.6119 152.1292 176.6838 H 778 ligands_prepared 0.0000
23 H23 226.1272 152.5404 179.1764 H 778 ligands_prepared 0.0000
24 H24 227.7026 153.2028 178.7575 H 778 ligands_prepared 0.0000
25 H25 226.0529 155.0466 179.2651 H 778 ligands_prepared 0.0000
26 H26 223.9727 153.8368 178.5568 H 778 ligands_prepared 0.0000
27 H27 224.0858 155.3789 177.7174 H 778 ligands_prepared 0.0000
28 H28 223.9432 152.7096 176.5129 H 778 ligands_prepared 0.0000
29 H29 224.0513 154.2706 175.6598 H 778 ligands_prepared 0.0000
30 H30 227.9657 155.3124 179.8123 H 778 ligands_prepared 0.0000
31 H31 228.0220 156.4497 182.0215 H 778 ligands_prepared 0.0000
32 H32 227.5500 158.8855 182.1786 H 778 ligands_prepared 0.0000
33 H33 226.9787 160.1781 180.1327 H 778 ligands_prepared 0.0000
34 H34 226.9216 159.0423 177.9218 H 778 ligands_prepared 0.0000
@<TRIPOS>BOND
      1     1     2    3
      2     2     3    1
      3     3     4    2
      4     3    12    1
      5     4     5    1
      6     4     9    1
      7     5     6    1
      8     5    18    1
      9     5    19    1
     10     6     7    1
     11     6    11    1
     12     6    20    1
     13     7     8    1
     14     7    21    1
     15     7    22    1
     16     8     9    1
     17     8    23    1
     18     8    24    1
     19     9    10    1
     20     9    25    1
     21    10    11    1
     22    10    26    1
     23    10    27    1
     24    11    28    1
     25    11    29    1
     26    12    13   ar
     27    12    17   ar
     28    13    14   ar
     29    13    30    1
     30    14    15   ar
     31    14    31    1
     32    15    16   ar
     33    15    32    1
     34    16    17   ar
     35    16    33    1
     36    17    34    1
@<TRIPOS>MOLECULE
CHEMBL2435283_LIG
43 46 1 0 0
SMALL
USER_CHARGES

@<TRIPOS>ATOM
1 C1 224.4858 152.8204 177.1838 C.ar 778 ligands_prepared 0.0000
2 C2 225.8299 152.6144 177.4884 C.ar 778 ligands_prepared 0.0000
3 C3 226.7160 153.6900 177.5046 C.ar 778 ligands_prepared 0.0000
4 C4 226.2509 154.9735 177.2115 C.ar 778 ligands_prepared 0.0000
5 C5 227.1817 156.1121 177.2363 C.2 778 ligands_prepared 0.0000
6 C6 227.8969 156.4937 176.1723 C.2 778 ligands_prepared 0.0000
7 C7 228.8493 157.6542 176.2076 C.3 778 ligands_prepared 0.0000
8 N8 229.5051 157.8169 174.8514 N.4 778 ligands_prepared 1.0000
9 C9 228.4300 158.0622 173.8097 C.3 778 ligands_prepared 0.0000
10 C10 227.4370 156.8879 173.7833 C.3 778 ligands_prepared 0.0000
11 C11 227.8556 155.8334 174.8237 C.3 778 ligands_prepared 0.0000
12 C12 229.2768 155.3467 174.4848 C.3 778 ligands_prepared 0.0000
13 C13 230.2467 156.5404 174.5049 C.3 778 ligands_prepared 0.0000
14 C14 227.2589 156.7937 178.5374 C.ar 778 ligands_prepared 0.0000
15 C15 227.1228 158.1813 178.6044 C.ar 778 ligands_prepared 0.0000
16 C16 227.2155 158.8247 179.8361 C.ar 778 ligands_prepared 0.0000
17 C17 227.4438 158.0873 180.9962 C.ar 778 ligands_prepared 0.0000
18 C18 227.5849 156.7010 180.9255 C.ar 778 ligands_prepared 0.0000
19 C19 227.4921 156.0506 179.6968 C.ar 778 ligands_prepared 0.0000
20 C20 224.9031 155.1843 176.9124 C.ar 778 ligands_prepared 0.0000
21 C21 224.0229 154.1045 176.8990 C.ar 778 ligands_prepared 0.0000
22 H22 223.7955 151.9756 177.1657 H 778 ligands_prepared 0.0000
23 H23 226.1927 151.6108 177.7130 H 778 ligands_prepared 0.0000
24 H24 227.7697 153.5371 177.7404 H 778 ligands_prepared 0.0000
25 H25 228.3228 158.6037 176.4768 H 778 ligands_prepared 0.0000
26 H26 229.6419 157.5064 176.9823 H 778 ligands_prepared 0.0000
27 H27 230.1763 158.6280 174.8741 H 778 ligands_prepared 0.0000
28 H28 227.9160 159.0225 174.0457 H 778 ligands_prepared 0.0000
29 H29 228.9197 158.2025 172.8194 H 778 ligands_prepared 0.0000
30 H30 226.4078 157.2442 173.9818 H 778 ligands_prepared 0.0000
31 H31 227.4036 156.4301 172.7746 H 778 ligands_prepared 0.0000
32 H32 227.1429 154.9757 174.8074 H 778 ligands_prepared 0.0000
33 H33 229.2815 154.8565 173.4907 H 778 ligands_prepared 0.0000
34 H34 229.6029 154.5675 175.2004 H 778 ligands_prepared 0.0000
35 H35 231.0601 156.3869 175.2510 H 778 ligands_prepared 0.0000
36 H36 230.7447 156.6748 173.5183 H 778 ligands_prepared 0.0000
37 H37 226.9442 158.7522 177.6927 H 778 ligands_prepared 0.0000
38 H38 227.1057 159.9095 179.8908 H 778 ligands_prepared 0.0000
39 H39 227.5086 158.5932 181.9608 H 778 ligands_prepared 0.0000
40 H40 227.7651 156.1238 181.8333 H 778 ligands_prepared 0.0000
41 H41 227.5998 154.9679 179.6344 H 778 ligands_prepared 0.0000
42 H42 224.5494 156.1905 176.6886 H 778 ligands_prepared 0.0000
43 H43 222.9707 154.2653 176.6619 H 778 ligands_prepared 0.0000
@<TRIPOS>BOND
      1     1     2   ar
      2     1    21   ar
      3     1    22    1
      4     2     3   ar
      5     2    23    1
      6     3     4   ar
      7     3    24    1
      8     4     5    1
      9     4    20   ar
     10     5     6    2
     11     5    14    1
     12     6     7    1
     13     6    11    1
     14     7     8    1
     15     7    25    1
     16     7    26    1
     17     8     9    1
     18     8    13    1
     19     8    27    1
     20     9    10    1
     21     9    28    1
     22     9    29    1
     23    10    11    1
     24    10    30    1
     25    10    31    1
     26    11    12    1
     27    11    32    1
     28    12    13    1
     29    12    33    1
     30    12    34    1
     31    13    35    1
     32    13    36    1
     33    14    15   ar
     34    14    19   ar
     35    15    16   ar
     36    15    37    1
     37    16    17   ar
     38    16    38    1
     39    17    18   ar
     40    17    39    1
     41    18    19   ar
     42    18    40    1
     43    19    41    1
     44    20    21   ar
     45    20    42    1
     46    21    43    1
@<TRIPOS>MOLECULE
CHEMBL2435284_LIG
56 60 1 0 0
SMALL
USER_CHARGES

@<TRIPOS>ATOM
1 C1 228.0687 160.1382 169.3965 C.ar 778 ligands_prepared 0.0000
2 C2 228.5237 158.8242 169.4995 C.ar 778 ligands_prepared 0.0000
3 C3 228.0403 157.9966 170.5095 C.ar 778 ligands_prepared 0.0000
4 C4 227.1077 158.4871 171.4248 C.ar 778 ligands_prepared 0.0000
5 C5 226.5901 157.6001 172.5154 C.3 778 ligands_prepared 0.0000
6 N6 226.9933 158.0824 173.8971 N.4 778 ligands_prepared 1.0000
7 C7 228.4898 158.3234 173.9764 C.3 778 ligands_prepared 0.0000
8 C8 228.8898 158.7463 175.4015 C.3 778 ligands_prepared 0.0000
9 C9 227.6404 158.8082 176.2967 C.3 778 ligands_prepared 0.0000
10 C10 226.6351 159.8016 175.6890 C.3 778 ligands_prepared 0.0000
11 C11 226.2648 159.3628 174.2613 C.3 778 ligands_prepared 0.0000
12 C12 227.0026 157.4513 176.2845 C.2 778 ligands_prepared 0.0000
13 C13 226.7791 156.6849 177.3574 C.2 778 ligands_prepared 0.0000
14 C14 226.1434 155.3640 177.2428 C.ar 778 ligands_prepared 0.0000
15 C15 226.9123 154.2093 177.4024 C.ar 778 ligands_prepared 0.0000
16 C16 226.3099 152.9603 177.2729 C.ar 778 ligands_prepared 0.0000
17 C17 224.9494 152.8662 176.9871 C.ar 778 ligands_prepared 0.0000
18 C18 224.1843 154.0219 176.8372 C.ar 778 ligands_prepared 0.0000
19 C19 224.7792 155.2749 176.9657 C.ar 778 ligands_prepared 0.0000
20 C20 227.1384 157.0791 178.7248 C.ar 778 ligands_prepared 0.0000
21 C21 227.1658 158.4308 179.0721 C.ar 778 ligands_prepared 0.0000
22 C22 227.4824 158.8008 180.3764 C.ar 778 ligands_prepared 0.0000
23 C23 227.7715 157.8249 181.3289 C.ar 778 ligands_prepared 0.0000
24 C24 227.7471 156.4758 180.9780 C.ar 778 ligands_prepared 0.0000
25 C25 227.4298 156.0988 179.6765 C.ar 778 ligands_prepared 0.0000
26 C26 226.6204 157.0062 174.9018 C.3 778 ligands_prepared 0.0000
27 C27 226.6341 159.7952 171.3069 C.ar 778 ligands_prepared 0.0000
28 C28 227.1201 160.6214 170.2956 C.ar 778 ligands_prepared 0.0000
29 H29 228.4553 160.7889 168.6093 H 778 ligands_prepared 0.0000
30 H30 229.2605 158.4422 168.7908 H 778 ligands_prepared 0.0000
31 H31 228.3916 156.9654 170.5786 H 778 ligands_prepared 0.0000
32 H32 226.9547 156.5484 172.3823 H 778 ligands_prepared 0.0000
33 H33 225.4717 157.5259 172.4738 H 778 ligands_prepared 0.0000
34 H34 229.0246 157.3960 173.6709 H 778 ligands_prepared 0.0000
35 H35 228.7702 159.1129 173.2421 H 778 ligands_prepared 0.0000
36 H36 229.6303 158.0373 175.8210 H 778 ligands_prepared 0.0000
37 H37 229.3992 159.7308 175.3860 H 778 ligands_prepared 0.0000
38 H38 227.9216 159.1283 177.3280 H 778 ligands_prepared 0.0000
39 H39 227.0632 160.8245 175.6831 H 778 ligands_prepared 0.0000
40 H40 225.7264 159.8674 176.3206 H 778 ligands_prepared 0.0000
41 H41 225.1670 159.1969 174.1681 H 778 ligands_prepared 0.0000
42 H42 226.5335 160.1552 173.5269 H 778 ligands_prepared 0.0000
43 H43 227.9771 154.2899 177.6218 H 778 ligands_prepared 0.0000
44 H44 226.9088 152.0559 177.3897 H 778 ligands_prepared 0.0000
45 H45 224.4839 151.8871 176.8740 H 778 ligands_prepared 0.0000
46 H46 223.1196 153.9486 176.6138 H 778 ligands_prepared 0.0000
47 H47 224.1870 156.1819 176.8452 H 778 ligands_prepared 0.0000
48 H48 226.9407 159.1892 178.3215 H 778 ligands_prepared 0.0000
49 H49 227.5066 159.8558 180.6502 H 778 ligands_prepared 0.0000
50 H50 228.0182 158.1164 182.3501 H 778 ligands_prepared 0.0000
51 H51 227.9768 155.7128 181.7219 H 778 ligands_prepared 0.0000
52 H52 227.4090 155.0461 179.3942 H 778 ligands_prepared 0.0000
53 H53 227.1350 156.0505 174.6330 H 778 ligands_prepared 0.0000
54 H54 225.5225 156.8010 174.8371 H 778 ligands_prepared 0.0000
55 H55 225.8822 160.1753 172.0014 H 778 ligands_prepared 0.0000
56 H56 226.7563 161.6463 170.2108 H 778 ligands_prepared 0.0000
@<TRIPOS>BOND
      1     1     2   ar
      2     1    28   ar
      3     1    29    1
      4     2     3   ar
      5     2    30    1
      6     3     4   ar
      7     3    31    1
      8     4     5    1
      9     4    27   ar
     10     5    32    1
     11     5    33    1
     12     6     5    1
     13     6     7    1
     14     6    11    1
     15     6    26    1
     16     7     8    1
     17     7    34    1
     18     7    35    1
     19     8     9    1
     20     8    36    1
     21     8    37    1
     22     9    10    1
     23     9    12    1
     24     9    38    1
     25    10    11    1
     26    10    39    1
     27    10    40    1
     28    11    41    1
     29    11    42    1
     30    12    13    2
     31    12    26    1
     32    13    14    1
     33    13    20    1
     34    14    15   ar
     35    14    19   ar
     36    15    16   ar
     37    15    43    1
     38    16    17   ar
     39    16    44    1
     40    17    18   ar
     41    17    45    1
     42    18    19   ar
     43    18    46    1
     44    19    47    1
     45    20    21   ar
     46    20    25   ar
     47    21    22   ar
     48    21    48    1
     49    22    23   ar
     50    22    49    1
     51    23    24   ar
     52    23    50    1
     53    24    25   ar
     54    24    51    1
     55    25    52    1
     56    26    53    1
     57    26    54    1
     58    27    28   ar
     59    27    55    1
     60    28    56    1
@<TRIPOS>MOLECULE
CHEMBL3037926_LIG
29 30 1 0 0
SMALL
USER_CHARGES

@<TRIPOS>ATOM
1 C1 220.3251 153.1494 179.8373 C.3 778 ligands_prepared 0.0000
2 N2 219.6971 153.5180 178.5667 N.am 778 ligands_prepared 0.0000
3 C3 220.0831 152.9146 177.4117 C.2 778 ligands_prepared 0.0000
4 O4 220.9239 152.0119 177.4483 O.2 778 ligands_prepared 0.0000
5 C5 219.4273 153.3931 176.1291 C.3 778 ligands_prepared 0.0000
6 C6 219.8513 152.4658 174.8058 C.3 778 ligands_prepared 0.0000
7 C7 218.6358 152.4247 173.8726 C.3 778 ligands_prepared 0.0000
8 C8 218.2045 150.9954 173.4898 C.3 778 ligands_prepared 0.0000
9 N9 216.9784 150.6955 174.3307 N.4 778 ligands_prepared 1.0000
10 C10 216.2912 152.0341 174.5002 C.3 778 ligands_prepared 0.0000
11 C11 217.4445 153.0310 174.6740 C.3 778 ligands_prepared 0.0000
12 C12 217.9067 153.1611 176.1369 C.3 778 ligands_prepared 0.0000
13 H13 219.8543 152.2394 180.2556 H 778 ligands_prepared 0.0000
14 H14 220.2207 153.9701 180.5693 H 778 ligands_prepared 0.0000
15 H15 221.4030 152.9371 179.7115 H 778 ligands_prepared 0.0000
16 H16 219.0433 154.2957 178.5792 H 778 ligands_prepared 0.0000
17 H17 219.6398 154.4833 175.9886 H 778 ligands_prepared 0.0000
18 H18 220.7326 152.8710 174.2671 H 778 ligands_prepared 0.0000
19 H19 220.1609 151.4605 175.1394 H 778 ligands_prepared 0.0000
20 H20 218.8379 153.0124 172.9492 H 778 ligands_prepared 0.0000
21 H21 218.9900 150.2349 173.6815 H 778 ligands_prepared 0.0000
22 H22 217.9439 150.9208 172.4116 H 778 ligands_prepared 0.0000
23 H23 217.2860 150.3462 175.2757 H 778 ligands_prepared 0.0000
24 H24 216.3646 149.9787 173.8989 H 778 ligands_prepared 0.0000
25 H25 215.6787 152.2616 173.5991 H 778 ligands_prepared 0.0000
26 H26 215.5928 152.0027 175.3633 H 778 ligands_prepared 0.0000
27 H27 217.1580 154.0256 174.2703 H 778 ligands_prepared 0.0000
28 H28 217.3946 154.0108 176.6277 H 778 ligands_prepared 0.0000
29 H29 217.6358 152.2733 176.7363 H 778 ligands_prepared 0.0000
@<TRIPOS>BOND
      1     1     2    1
      2     1    13    1
      3     1    14    1
      4     1    15    1
      5     2     3   am
      6     2    16    1
      7     3     4    2
      8     3     5    1
      9     6     5    1
     10     5    12    1
     11     5    17    1
     12     6     7    1
     13     6    18    1
     14     6    19    1
     15     7     8    1
     16     7    11    1
     17     7    20    1
     18     8     9    1
     19     8    21    1
     20     8    22    1
     21     9    10    1
     22     9    23    1
     23     9    24    1
     24    10    11    1
     25    10    25    1
     26    10    26    1
     27    11    12    1
     28    11    27    1
     29    12    28    1
     30    12    29    1
@<TRIPOS>MOLECULE
CHEMBL3037927_LIG
31 33 1 0 0
SMALL
USER_CHARGES

@<TRIPOS>ATOM
1 O1 220.6297 152.0129 177.1076 O.2 778 ligands_prepared 0.0000
2 C2 219.8727 152.9579 177.0104 C.2 778 ligands_prepared 0.0000
3 C3 219.5543 153.7440 178.2312 C.3 778 ligands_prepared 0.0000
4 C4 220.2798 153.4102 179.5146 C.3 778 ligands_prepared 0.0000
5 C5 218.8101 153.1050 179.3784 C.3 778 ligands_prepared 0.0000
6 C6 219.2640 153.3959 175.7005 C.3 778 ligands_prepared 0.0000
7 C7 219.6943 152.5074 174.5706 C.3 778 ligands_prepared 0.0000
8 C8 218.4960 152.3367 173.6207 C.3 778 ligands_prepared 0.0000
9 C9 218.2234 150.8722 173.2404 C.3 778 ligands_prepared 0.0000
10 N10 217.1735 150.3896 174.2192 N.4 778 ligands_prepared 1.0000
11 C11 216.3073 151.5983 174.5130 C.3 778 ligands_prepared 0.0000
12 C12 217.2326 152.8220 174.3928 C.3 778 ligands_prepared 0.0000
13 C13 217.7231 153.3561 175.7486 C.3 778 ligands_prepared 0.0000
14 H14 219.3575 154.8019 177.9873 H 778 ligands_prepared 0.0000
15 H15 220.6189 154.2110 180.1707 H 778 ligands_prepared 0.0000
16 H16 221.0052 152.5929 179.5201 H 778 ligands_prepared 0.0000
17 H17 218.0781 153.6948 179.9322 H 778 ligands_prepared 0.0000
18 H18 218.4725 152.0727 179.2979 H 778 ligands_prepared 0.0000
19 H19 219.6013 154.4408 175.4805 H 778 ligands_prepared 0.0000
20 H20 220.5335 152.9889 174.0314 H 778 ligands_prepared 0.0000
21 H21 220.0915 151.5396 174.9217 H 778 ligands_prepared 0.0000
22 H22 218.6502 152.9372 172.6995 H 778 ligands_prepared 0.0000
23 H23 219.1259 150.2271 173.3004 H 778 ligands_prepared 0.0000
24 H24 217.8317 150.7795 172.2021 H 778 ligands_prepared 0.0000
25 H25 217.6516 150.0868 175.1107 H 778 ligands_prepared 0.0000
26 H26 216.6281 149.5847 173.8571 H 778 ligands_prepared 0.0000
27 H27 215.4700 151.6398 173.7799 H 778 ligands_prepared 0.0000
28 H28 215.8445 151.4979 175.5181 H 778 ligands_prepared 0.0000
29 H29 216.7110 153.6250 173.8311 H 778 ligands_prepared 0.0000
30 H30 217.3379 152.7685 176.5972 H 778 ligands_prepared 0.0000
31 H31 217.3341 154.3821 175.9052 H 778 ligands_prepared 0.0000
@<TRIPOS>BOND
      1     1     2    2
      2     2     3    1
      3     2     6    1
      4     3     4    1
      5     3     5    1
      6     3    14    1
      7     4     5    1
      8     4    15    1
      9     4    16    1
     10     5    17    1
     11     5    18    1
     12     7     6    1
     13     6    13    1
     14     6    19    1
     15     7     8    1
     16     7    20    1
     17     7    21    1
     18     8     9    1
     19     8    12    1
     20     8    22    1
     21     9    10    1
     22     9    23    1
     23     9    24    1
     24    10    11    1
     25    10    25    1
     26    10    26    1
     27    11    12    1
     28    11    27    1
     29    11    28    1
     30    12    13    1
     31    12    29    1
     32    13    30    1
     33    13    31    1
@<TRIPOS>MOLECULE
CHEMBL3037928_LIG
31 33 1 0 0
SMALL
USER_CHARGES

@<TRIPOS>ATOM
1 O1 221.2851 152.0134 177.0604 O.2 778 ligands_prepared 0.0000
2 C2 220.3696 152.8044 177.1816 C.2 778 ligands_prepared 0.0000
3 C3 219.9754 153.2482 178.5119 C.2 778 ligands_prepared 0.0000
4 C4 218.8025 153.3867 179.2171 C.2 778 ligands_prepared 0.0000
5 C5 219.1604 153.8793 180.5156 C.2 778 ligands_prepared 0.0000
6 C6 220.5292 154.0162 180.5131 C.2 778 ligands_prepared 0.0000
7 O7 221.0529 153.6374 179.3098 O.3 778 ligands_prepared 0.0000
8 C8 219.6056 153.3420 175.9956 C.3 778 ligands_prepared 0.0000
9 C9 219.9339 152.4981 174.6219 C.3 778 ligands_prepared 0.0000
10 C10 218.6373 152.4340 173.8058 C.3 778 ligands_prepared 0.0000
11 C11 218.2443 151.0025 173.3998 C.3 778 ligands_prepared 0.0000
12 N12 217.0887 150.6025 174.2927 N.4 778 ligands_prepared 1.0000
13 C13 216.3905 151.8925 174.6649 C.3 778 ligands_prepared 0.0000
14 C14 217.4987 152.9530 174.7371 C.3 778 ligands_prepared 0.0000
15 C15 218.0968 153.1004 176.1474 C.3 778 ligands_prepared 0.0000
16 H16 217.7980 153.1723 178.8876 H 778 ligands_prepared 0.0000
17 H17 218.4773 154.0879 181.3162 H 778 ligands_prepared 0.0000
18 H18 221.2665 154.3420 181.2203 H 778 ligands_prepared 0.0000
19 H19 219.8086 154.4349 175.8822 H 778 ligands_prepared 0.0000
20 H20 220.3253 151.4928 174.8634 H 778 ligands_prepared 0.0000
21 H21 220.7380 152.9830 174.0266 H 778 ligands_prepared 0.0000
22 H22 218.7235 153.0719 172.8947 H 778 ligands_prepared 0.0000
23 H23 217.9298 150.9511 172.3327 H 778 ligands_prepared 0.0000
24 H24 219.0753 150.2781 173.5160 H 778 ligands_prepared 0.0000
25 H25 216.4492 149.9272 173.8293 H 778 ligands_prepared 0.0000
26 H26 217.4591 150.1540 175.1588 H 778 ligands_prepared 0.0000
27 H27 215.8419 151.7660 175.6234 H 778 ligands_prepared 0.0000
28 H28 215.6237 152.1454 173.8932 H 778 ligands_prepared 0.0000
29 H29 217.1116 153.9354 174.3781 H 778 ligands_prepared 0.0000
30 H30 217.6239 153.9468 176.6795 H 778 ligands_prepared 0.0000
31 H31 217.8884 152.2112 176.7708 H 778 ligands_prepared 0.0000
@<TRIPOS>BOND
      1     1     2    2
      2     2     3    1
      3     2     8    1
      4     3     4    2
      5     3     7    1
      6     4     5    1
      7     4    16    1
      8     5     6    2
      9     5    17    1
     10     6     7    1
     11     6    18    1
     12     9     8    1
     13     8    15    1
     14     8    19    1
     15     9    10    1
     16     9    20    1
     17     9    21    1
     18    10    11    1
     19    10    14    1
     20    10    22    1
     21    11    12    1
     22    11    23    1
     23    11    24    1
     24    12    13    1
     25    12    25    1
     26    12    26    1
     27    13    14    1
     28    13    27    1
     29    13    28    1
     30    14    15    1
     31    14    29    1
     32    15    30    1
     33    15    31    1
@<TRIPOS>MOLECULE
CHEMBL3037929_LIG
28 29 1 0 0
SMALL
USER_CHARGES

@<TRIPOS>ATOM
1 C1 219.4886 153.2231 179.2927 C.3 778 ligands_prepared 0.0000
2 O2 218.9114 153.1113 177.9917 O.3 778 ligands_prepared 0.0000
3 C3 219.7238 152.7459 176.9821 C.2 778 ligands_prepared 0.0000
4 O4 220.6834 152.0305 177.1697 O.2 778 ligands_prepared 0.0000
5 C5 219.2400 153.3449 175.6883 C.3 778 ligands_prepared 0.0000
6 C6 219.6891 152.5033 174.5367 C.3 778 ligands_prepared 0.0000
7 C7 218.4920 152.3296 173.5873 C.3 778 ligands_prepared 0.0000
8 C8 218.2146 150.8618 173.2261 C.3 778 ligands_prepared 0.0000
9 N9 217.1952 150.3906 174.2425 N.4 778 ligands_prepared 1.0000
10 C10 216.3118 151.5950 174.4990 C.3 778 ligands_prepared 0.0000
11 C11 217.2246 152.8240 174.3456 C.3 778 ligands_prepared 0.0000
12 C12 217.7014 153.4005 175.6867 C.3 778 ligands_prepared 0.0000
13 H13 220.2676 153.9934 179.2983 H 778 ligands_prepared 0.0000
14 H14 219.8979 152.2576 179.6102 H 778 ligands_prepared 0.0000
15 H15 218.6309 153.5151 179.9152 H 778 ligands_prepared 0.0000
16 H16 219.6628 154.3779 175.5742 H 778 ligands_prepared 0.0000
17 H17 220.5240 153.0088 174.0107 H 778 ligands_prepared 0.0000
18 H18 220.1071 151.5339 174.8628 H 778 ligands_prepared 0.0000
19 H19 218.6529 152.9216 172.6589 H 778 ligands_prepared 0.0000
20 H20 217.7939 150.7635 172.2002 H 778 ligands_prepared 0.0000
21 H21 219.1185 150.2180 173.2605 H 778 ligands_prepared 0.0000
22 H22 216.6572 149.5664 173.9137 H 778 ligands_prepared 0.0000
23 H23 217.6869 150.1283 175.1293 H 778 ligands_prepared 0.0000
24 H24 215.4785 151.6092 173.7611 H 778 ligands_prepared 0.0000
25 H25 215.8424 151.5147 175.5022 H 778 ligands_prepared 0.0000
26 H26 216.6953 153.6103 173.7613 H 778 ligands_prepared 0.0000
27 H27 217.2570 152.8770 176.5519 H 778 ligands_prepared 0.0000
28 H28 217.3659 154.4526 175.7914 H 778 ligands_prepared 0.0000
@<TRIPOS>BOND
      1     1     2    1
      2     1    13    1
      3     1    14    1
      4     1    15    1
      5     2     3    1
      6     3     4    2
      7     3     5    1
      8     6     5    1
      9     5    12    1
     10     5    16    1
     11     6     7    1
     12     6    17    1
     13     6    18    1
     14     7     8    1
     15     7    11    1
     16     7    19    1
     17     8     9    1
     18     8    20    1
     19     8    21    1
     20     9    10    1
     21     9    22    1
     22     9    23    1
     23    10    11    1
     24    10    24    1
     25    10    25    1
     26    11    12    1
     27    11    26    1
     28    12    27    1
     29    12    28    1
@<TRIPOS>MOLECULE
CHEMBL3094067_LIG
29 30 1 0 0
SMALL
USER_CHARGES

@<TRIPOS>ATOM
1 C1 218.7470 153.2077 177.7113 C.3 778 ligands_prepared 0.0000
2 C2 219.3830 152.7432 176.4434 C.2 778 ligands_prepared 0.0000
3 O3 220.4886 152.1992 176.4392 O.2 778 ligands_prepared 0.0000
4 N4 218.7256 152.9136 175.2524 N.am 778 ligands_prepared 0.0000
5 C5 217.4499 153.6393 175.1389 C.3 778 ligands_prepared 0.0000
6 C6 216.5649 153.0534 174.0136 C.3 778 ligands_prepared 0.0000
7 C7 216.0964 151.6264 174.3593 C.3 778 ligands_prepared 0.0000
8 N8 217.2334 150.6404 174.4124 N.4 778 ligands_prepared 1.0000
9 C9 218.1516 150.7146 173.2106 C.3 778 ligands_prepared 0.0000
10 C10 218.5777 152.1568 172.8767 C.3 778 ligands_prepared 0.0000
11 C11 217.3571 153.0661 172.7030 C.3 778 ligands_prepared 0.0000
12 C12 219.4731 152.7366 173.9900 C.3 778 ligands_prepared 0.0000
13 H13 217.8347 152.6407 177.9488 H 778 ligands_prepared 0.0000
14 H14 219.4341 153.0923 178.5663 H 778 ligands_prepared 0.0000
15 H15 218.4693 154.2749 177.6666 H 778 ligands_prepared 0.0000
16 H16 216.8908 153.5992 176.1021 H 778 ligands_prepared 0.0000
17 H17 217.6555 154.7131 174.9297 H 778 ligands_prepared 0.0000
18 H18 215.6666 153.7110 173.9139 H 778 ligands_prepared 0.0000
19 H19 215.3667 151.2612 173.5963 H 778 ligands_prepared 0.0000
20 H20 215.5584 151.6059 175.3340 H 778 ligands_prepared 0.0000
21 H21 217.7848 150.7988 175.2850 H 778 ligands_prepared 0.0000
22 H22 216.8396 149.6736 174.4826 H 778 ligands_prepared 0.0000
23 H23 217.6099 150.2594 172.3476 H 778 ligands_prepared 0.0000
24 H24 219.0391 150.0680 173.3984 H 778 ligands_prepared 0.0000
25 H25 219.1743 152.1475 171.9311 H 778 ligands_prepared 0.0000
26 H26 216.7319 152.7559 171.8425 H 778 ligands_prepared 0.0000
27 H27 217.6729 154.0981 172.4516 H 778 ligands_prepared 0.0000
28 H28 220.3501 152.0680 174.1648 H 778 ligands_prepared 0.0000
29 H29 219.8766 153.7242 173.6745 H 778 ligands_prepared 0.0000
@<TRIPOS>BOND
      1     1     2    1
      2     1    13    1
      3     1    14    1
      4     1    15    1
      5     2     3    2
      6     2     4   am
      7     5     4    1
      8     4    12    1
      9     5     6    1
     10     5    16    1
     11     5    17    1
     12     6     7    1
     13     6    11    1
     14     6    18    1
     15     7     8    1
     16     7    19    1
     17     7    20    1
     18     8     9    1
     19     8    21    1
     20     8    22    1
     21     9    10    1
     22     9    23    1
     23     9    24    1
     24    10    11    1
     25    10    12    1
     26    10    25    1
     27    11    26    1
     28    11    27    1
     29    12    28    1
     30    12    29    1
@<TRIPOS>MOLECULE
CHEMBL3094068_LIG
32 33 1 0 0
SMALL
USER_CHARGES

@<TRIPOS>ATOM
1 C1 219.6311 153.1552 178.7570 C.3 778 ligands_prepared 0.0000
2 C2 218.7559 153.3960 177.5301 C.3 778 ligands_prepared 0.0000
3 C3 219.4021 152.8108 176.3003 C.2 778 ligands_prepared 0.0000
4 O4 220.4689 152.1999 176.3555 O.2 778 ligands_prepared 0.0000
5 N5 218.7972 152.9550 175.0789 N.am 778 ligands_prepared 0.0000
6 C6 217.5505 153.7072 174.8802 C.3 778 ligands_prepared 0.0000
7 C7 216.6457 153.0500 173.8117 C.3 778 ligands_prepared 0.0000
8 C8 216.0999 151.6967 174.3076 C.3 778 ligands_prepared 0.0000
9 N9 217.2043 150.6697 174.5191 N.4 778 ligands_prepared 1.0000
10 C10 218.0652 150.5423 173.2838 C.3 778 ligands_prepared 0.0000
11 C11 218.5990 151.9080 172.8100 C.3 778 ligands_prepared 0.0000
12 C12 217.4501 152.8773 172.5211 C.3 778 ligands_prepared 0.0000
13 C13 219.5276 152.5410 173.8683 C.3 778 ligands_prepared 0.0000
14 H14 220.6339 153.5832 178.6257 H 778 ligands_prepared 0.0000
15 H15 219.1863 153.6054 179.6537 H 778 ligands_prepared 0.0000
16 H16 219.7625 152.0824 178.9487 H 778 ligands_prepared 0.0000
17 H17 217.7500 152.9476 177.6806 H 778 ligands_prepared 0.0000
18 H18 218.5819 154.4864 177.3952 H 778 ligands_prepared 0.0000
19 H19 217.7950 154.7535 174.5661 H 778 ligands_prepared 0.0000
20 H20 216.9844 153.7893 175.8361 H 778 ligands_prepared 0.0000
21 H21 215.7822 153.7392 173.6268 H 778 ligands_prepared 0.0000
22 H22 215.3791 151.2667 173.5728 H 778 ligands_prepared 0.0000
23 H23 215.5325 151.8133 175.2620 H 778 ligands_prepared 0.0000
24 H24 217.7931 150.9365 175.3408 H 778 ligands_prepared 0.0000
25 H25 216.7835 149.7398 174.7493 H 778 ligands_prepared 0.0000
26 H26 218.9010 149.8356 173.5020 H 778 ligands_prepared 0.0000
27 H27 217.4516 150.0599 172.4861 H 778 ligands_prepared 0.0000
28 H28 219.2016 151.7523 171.8773 H 778 ligands_prepared 0.0000
29 H29 217.8450 153.8561 172.1753 H 778 ligands_prepared 0.0000
30 H30 216.8160 152.5308 171.6821 H 778 ligands_prepared 0.0000
31 H31 220.3318 151.8185 174.1454 H 778 ligands_prepared 0.0000
32 H32 220.0381 153.4331 173.4297 H 778 ligands_prepared 0.0000
@<TRIPOS>BOND
      1     1     2    1
      2     1    14    1
      3     1    15    1
      4     1    16    1
      5     2     3    1
      6     2    17    1
      7     2    18    1
      8     3     4    2
      9     3     5   am
     10     6     5    1
     11     5    13    1
     12     6     7    1
     13     6    19    1
     14     6    20    1
     15     7     8    1
     16     7    12    1
     17     7    21    1
     18     8     9    1
     19     8    22    1
     20     8    23    1
     21     9    10    1
     22     9    24    1
     23     9    25    1
     24    10    11    1
     25    10    26    1
     26    10    27    1
     27    11    12    1
     28    11    13    1
     29    11    28    1
     30    12    29    1
     31    12    30    1
     32    13    31    1
     33    13    32    1
@<TRIPOS>MOLECULE
CHEMBL3094069_LIG
35 36 1 0 0
SMALL
USER_CHARGES

@<TRIPOS>ATOM
1 C1 220.0332 154.0050 180.4935 C.3 778 ligands_prepared 0.0000
2 C2 220.5657 153.6854 179.0996 C.3 778 ligands_prepared 0.0000
3 C3 219.4047 153.4272 178.1287 C.3 778 ligands_prepared 0.0000
4 C4 219.9425 152.9721 176.8004 C.2 778 ligands_prepared 0.0000
5 O5 221.1119 152.6187 176.6738 O.2 778 ligands_prepared 0.0000
6 N6 219.0956 152.8406 175.7177 N.am 778 ligands_prepared 0.0000
7 C7 217.6388 153.1001 175.8828 C.3 778 ligands_prepared 0.0000
8 C8 216.9742 153.6023 174.5792 C.3 778 ligands_prepared 0.0000
9 C9 215.9404 152.5844 174.0603 C.3 778 ligands_prepared 0.0000
10 N10 216.5747 151.2488 173.6418 N.4 778 ligands_prepared 1.0000
11 C11 217.7342 151.4824 172.6990 C.3 778 ligands_prepared 0.0000
12 C12 218.7534 152.4918 173.2604 C.3 778 ligands_prepared 0.0000
13 C13 218.0778 153.8371 173.5417 C.3 778 ligands_prepared 0.0000
14 C14 219.4008 151.9753 174.5705 C.3 778 ligands_prepared 0.0000
15 H15 219.3691 154.8777 180.4818 H 778 ligands_prepared 0.0000
16 H16 219.4603 153.1675 180.9093 H 778 ligands_prepared 0.0000
17 H17 220.8510 154.2250 181.1918 H 778 ligands_prepared 0.0000
18 H18 221.2313 152.7997 179.1336 H 778 ligands_prepared 0.0000
19 H19 221.1948 154.5175 178.7229 H 778 ligands_prepared 0.0000
20 H20 218.7036 152.6872 178.5716 H 778 ligands_prepared 0.0000
21 H21 218.8053 154.3558 177.9930 H 778 ligands_prepared 0.0000
22 H22 217.1318 152.1773 176.2469 H 778 ligands_prepared 0.0000
23 H23 217.5123 153.8688 176.6839 H 778 ligands_prepared 0.0000
24 H24 216.4534 154.5671 174.8005 H 778 ligands_prepared 0.0000
25 H25 215.4079 152.9816 173.1618 H 778 ligands_prepared 0.0000
26 H26 215.1462 152.3913 174.8196 H 778 ligands_prepared 0.0000
27 H27 216.9037 150.7186 174.4823 H 778 ligands_prepared 0.0000
28 H28 215.8630 150.6431 173.1733 H 778 ligands_prepared 0.0000
29 H29 217.3144 151.8495 171.7302 H 778 ligands_prepared 0.0000
30 H30 218.2139 150.5049 172.4690 H 778 ligands_prepared 0.0000
31 H31 219.5733 152.6312 172.5095 H 778 ligands_prepared 0.0000
32 H32 218.8172 154.5721 173.9225 H 778 ligands_prepared 0.0000
33 H33 217.6864 154.3021 172.6165 H 778 ligands_prepared 0.0000
34 H34 219.0932 150.9238 174.7630 H 778 ligands_prepared 0.0000
35 H35 220.5126 151.9462 174.4443 H 778 ligands_prepared 0.0000
@<TRIPOS>BOND
      1     1     2    1
      2     1    15    1
      3     1    16    1
      4     1    17    1
      5     2     3    1
      6     2    18    1
      7     2    19    1
      8     3     4    1
      9     3    20    1
     10     3    21    1
     11     4     5    2
     12     4     6   am
     13     7     6    1
     14     6    14    1
     15     7     8    1
     16     7    22    1
     17     7    23    1
     18     8     9    1
     19     8    13    1
     20     8    24    1
     21     9    10    1
     22     9    25    1
     23     9    26    1
     24    10    11    1
     25    10    27    1
     26    10    28    1
     27    11    12    1
     28    11    29    1
     29    11    30    1
     30    12    13    1
     31    12    14    1
     32    12    31    1
     33    13    32    1
     34    13    33    1
     35    14    34    1
     36    14    35    1
@<TRIPOS>MOLECULE
CHEMBL3094070_LIG
35 36 1 0 0
SMALL
USER_CHARGES

@<TRIPOS>ATOM
1 C1 218.3946 152.9557 178.5666 C.3 778 ligands_prepared 0.0000
2 C2 219.5928 153.6879 177.9563 C.3 778 ligands_prepared 0.0000
3 C3 220.7797 153.7099 178.9214 C.3 778 ligands_prepared 0.0000
4 C4 219.9995 152.9600 176.6827 C.2 778 ligands_prepared 0.0000
5 O5 221.1127 152.4490 176.5692 O.2 778 ligands_prepared 0.0000
6 N6 219.1047 152.7950 175.6557 N.am 778 ligands_prepared 0.0000
7 C7 219.5272 152.1333 174.4078 C.3 778 ligands_prepared 0.0000
8 C8 218.4621 151.1311 173.9008 C.3 778 ligands_prepared 0.0000
9 C9 217.8816 151.5864 172.5471 C.3 778 ligands_prepared 0.0000
10 N10 216.4047 151.9018 172.6301 N.4 778 ligands_prepared 1.0000
11 C11 216.0943 152.8553 173.7629 C.3 778 ligands_prepared 0.0000
12 C12 216.7016 152.3943 175.1015 C.3 778 ligands_prepared 0.0000
13 C13 217.3565 151.0165 174.9554 C.3 778 ligands_prepared 0.0000
14 C14 217.7683 153.3981 175.6061 C.3 778 ligands_prepared 0.0000
15 H15 218.0807 153.4318 179.5063 H 778 ligands_prepared 0.0000
16 H16 217.5265 152.9605 177.8955 H 778 ligands_prepared 0.0000
17 H17 218.6324 151.9071 178.7928 H 778 ligands_prepared 0.0000
18 H18 219.3091 154.7461 177.7255 H 778 ligands_prepared 0.0000
19 H19 221.1324 152.6962 179.1521 H 778 ligands_prepared 0.0000
20 H20 220.5094 154.1959 179.8684 H 778 ligands_prepared 0.0000
21 H21 221.6304 154.2596 178.4963 H 778 ligands_prepared 0.0000
22 H22 219.7426 152.8941 173.6213 H 778 ligands_prepared 0.0000
23 H23 220.4870 151.5950 174.5978 H 778 ligands_prepared 0.0000
24 H24 218.9588 150.1363 173.7693 H 778 ligands_prepared 0.0000
25 H25 218.4185 152.4842 172.1611 H 778 ligands_prepared 0.0000
26 H26 218.0156 150.7889 171.7744 H 778 ligands_prepared 0.0000
27 H27 215.8635 151.0160 172.7597 H 778 ligands_prepared 0.0000
28 H28 216.0807 152.3142 171.7236 H 778 ligands_prepared 0.0000
29 H29 216.4528 153.8718 173.4828 H 778 ligands_prepared 0.0000
30 H30 214.9821 152.9372 173.8440 H 778 ligands_prepared 0.0000
31 H31 215.8883 152.3442 175.8704 H 778 ligands_prepared 0.0000
32 H32 217.7774 150.6812 175.9267 H 778 ligands_prepared 0.0000
33 H33 216.6184 150.2321 174.6981 H 778 ligands_prepared 0.0000
34 H34 217.4936 153.7343 176.6386 H 778 ligands_prepared 0.0000
35 H35 217.7599 154.3138 174.9748 H 778 ligands_prepared 0.0000
@<TRIPOS>BOND
      1     1     2    1
      2     1    15    1
      3     1    16    1
      4     1    17    1
      5     2     3    1
      6     2     4    1
      7     2    18    1
      8     3    19    1
      9     3    20    1
     10     3    21    1
     11     4     5    2
     12     4     6   am
     13     7     6    1
     14     6    14    1
     15     7     8    1
     16     7    22    1
     17     7    23    1
     18     8     9    1
     19     8    13    1
     20     8    24    1
     21     9    10    1
     22     9    25    1
     23     9    26    1
     24    10    11    1
     25    10    27    1
     26    10    28    1
     27    11    12    1
     28    11    29    1
     29    11    30    1
     30    12    13    1
     31    12    14    1
     32    12    31    1
     33    13    32    1
     34    13    33    1
     35    14    34    1
     36    14    35    1
@<TRIPOS>MOLECULE
CHEMBL3094071_LIG
39 41 1 0 0
SMALL
USER_CHARGES

@<TRIPOS>ATOM
1 O1 220.6274 152.1023 176.4738 O.2 778 ligands_prepared 0.0000
2 C2 219.6400 152.8201 176.3591 C.2 778 ligands_prepared 0.0000
3 C3 219.1120 153.6602 177.5026 C.3 778 ligands_prepared 0.0000
4 C4 218.8086 152.8006 179.0294 C.3 778 ligands_prepared 0.0000
5 C5 220.0953 153.1579 180.0232 C.3 778 ligands_prepared 0.0000
6 C6 221.0892 153.6987 178.9826 C.3 778 ligands_prepared 0.0000
7 C7 220.2503 154.5662 178.0302 C.3 778 ligands_prepared 0.0000
8 N8 218.9827 152.8157 175.1476 N.am 778 ligands_prepared 0.0000
9 C9 217.8997 153.7643 174.8321 C.3 778 ligands_prepared 0.0000
10 C10 216.8901 153.1670 173.8280 C.3 778 ligands_prepared 0.0000
11 C11 216.0997 151.9856 174.4125 C.3 778 ligands_prepared 0.0000
12 N12 216.9945 150.8042 174.7160 N.4 778 ligands_prepared 1.0000
13 C13 217.8357 150.4215 173.5177 C.3 778 ligands_prepared 0.0000
14 C14 218.6218 151.6236 172.9728 C.3 778 ligands_prepared 0.0000
15 C15 217.6421 152.7299 172.5683 C.3 778 ligands_prepared 0.0000
16 C16 219.6423 152.1752 173.9902 C.3 778 ligands_prepared 0.0000
17 H17 218.2514 154.2884 177.1666 H 778 ligands_prepared 0.0000
18 H18 217.8263 153.1746 179.3656 H 778 ligands_prepared 0.0000
19 H19 218.7085 151.7008 178.9851 H 778 ligands_prepared 0.0000
20 H20 220.5007 152.2965 180.5772 H 778 ligands_prepared 0.0000
21 H21 219.8653 153.9313 180.7757 H 778 ligands_prepared 0.0000
22 H22 221.9030 154.2756 179.4537 H 778 ligands_prepared 0.0000
23 H23 221.5711 152.8712 178.4317 H 778 ligands_prepared 0.0000
24 H24 220.8646 154.9826 177.2142 H 778 ligands_prepared 0.0000
25 H25 219.8257 155.4372 178.5635 H 778 ligands_prepared 0.0000
26 H26 217.3639 154.0556 175.7655 H 778 ligands_prepared 0.0000
27 H27 218.3344 154.7027 174.4090 H 778 ligands_prepared 0.0000
28 H28 216.1507 153.9725 173.5699 H 778 ligands_prepared 0.0000
29 H29 215.2987 151.6655 173.7057 H 778 ligands_prepared 0.0000
30 H30 215.5809 152.2806 175.3564 H 778 ligands_prepared 0.0000
31 H31 216.4241 149.9881 175.0318 H 778 ligands_prepared 0.0000
32 H32 217.6308 151.0604 175.5042 H 778 ligands_prepared 0.0000
33 H33 217.1732 150.0001 172.7263 H 778 ligands_prepared 0.0000
34 H34 218.5230 149.5966 173.8245 H 778 ligands_prepared 0.0000
35 H35 219.1936 151.2788 172.0701 H 778 ligands_prepared 0.0000
36 H36 218.1830 153.5890 172.1211 H 778 ligands_prepared 0.0000
37 H37 216.9426 152.3794 171.7832 H 778 ligands_prepared 0.0000
38 H38 220.3024 151.3500 174.3531 H 778 ligands_prepared 0.0000
39 H39 220.3103 152.9153 173.4875 H 778 ligands_prepared 0.0000
@<TRIPOS>BOND
      1     1     2    2
      2     2     3    1
      3     2     8   am
      4     4     3    1
      5     3     7    1
      6     3    17    1
      7     4     5    1
      8     4    18    1
      9     4    19    1
     10     5     6    1
     11     5    20    1
     12     5    21    1
     13     6     7    1
     14     6    22    1
     15     6    23    1
     16     7    24    1
     17     7    25    1
     18     9     8    1
     19     8    16    1
     20     9    10    1
     21     9    26    1
     22     9    27    1
     23    10    11    1
     24    10    15    1
     25    10    28    1
     26    11    12    1
     27    11    29    1
     28    11    30    1
     29    12    13    1
     30    12    31    1
     31    12    32    1
     32    13    14    1
     33    13    33    1
     34    13    34    1
     35    14    15    1
     36    14    16    1
     37    14    35    1
     38    15    36    1
     39    15    37    1
     40    16    38    1
     41    16    39    1
@<TRIPOS>MOLECULE
CHEMBL3094096_LIG
33 35 1 0 0
SMALL
USER_CHARGES

@<TRIPOS>ATOM
1 O1 221.4119 152.1170 176.7972 O.2 778 ligands_prepared 0.0000
2 C2 220.3564 152.7390 176.9482 C.2 778 ligands_prepared 0.0000
3 C3 219.9416 153.0996 178.3053 C.2 778 ligands_prepared 0.0000
4 C4 218.7267 153.0888 178.9415 C.2 778 ligands_prepared 0.0000
5 C5 218.9378 153.7003 180.2259 C.2 778 ligands_prepared 0.0000
6 C6 220.2628 154.0439 180.2774 C.2 778 ligands_prepared 0.0000
7 O7 220.9066 153.6873 179.1156 O.3 778 ligands_prepared 0.0000
8 N8 219.5804 153.0196 175.8618 N.am 778 ligands_prepared 0.0000
9 C9 219.7043 152.3243 174.5766 C.3 778 ligands_prepared 0.0000
10 C10 218.4066 151.5721 174.2029 C.3 778 ligands_prepared 0.0000
11 C11 217.7492 152.1816 172.9495 C.3 778 ligands_prepared 0.0000
12 N12 216.3857 152.7617 173.2435 N.4 778 ligands_prepared 1.0000
13 C13 216.4141 153.7010 174.4269 C.3 778 ligands_prepared 0.0000
14 C14 217.0898 153.0722 175.6624 C.3 778 ligands_prepared 0.0000
15 C15 217.4517 151.6102 175.3978 C.3 778 ligands_prepared 0.0000
16 C16 218.3701 153.8398 176.0613 C.3 778 ligands_prepared 0.0000
17 H17 217.7872 152.7092 178.5749 H 778 ligands_prepared 0.0000
18 H18 218.1841 153.8550 180.9744 H 778 ligands_prepared 0.0000
19 H19 220.9109 154.5186 180.9874 H 778 ligands_prepared 0.0000
20 H20 219.9783 153.0284 173.7605 H 778 ligands_prepared 0.0000
21 H21 220.5455 151.5889 174.6460 H 778 ligands_prepared 0.0000
22 H22 218.6848 150.5096 173.9802 H 778 ligands_prepared 0.0000
23 H23 218.3878 152.9783 172.5037 H 778 ligands_prepared 0.0000
24 H24 217.6257 151.4055 172.1547 H 778 ligands_prepared 0.0000
25 H25 215.7080 151.9880 173.4259 H 778 ligands_prepared 0.0000
26 H26 216.0294 153.2684 172.3985 H 778 ligands_prepared 0.0000
27 H27 215.3579 153.9797 174.6603 H 778 ligands_prepared 0.0000
28 H28 216.9239 154.6427 174.1213 H 778 ligands_prepared 0.0000
29 H29 216.3788 153.1336 176.5261 H 778 ligands_prepared 0.0000
30 H30 216.5519 150.9865 175.2276 H 778 ligands_prepared 0.0000
31 H31 217.9274 151.1570 176.2927 H 778 ligands_prepared 0.0000
32 H32 218.3031 154.1533 177.1295 H 778 ligands_prepared 0.0000
33 H33 218.4512 154.7787 175.4588 H 778 ligands_prepared 0.0000
@<TRIPOS>BOND
      1     1     2    2
      2     2     3    1
      3     2     8   am
      4     3     4    2
      5     3     7    1
      6     4     5    1
      7     4    17    1
      8     5     6    2
      9     5    18    1
     10     6     7    1
     11     6    19    1
     12     9     8    1
     13     8    16    1
     14     9    10    1
     15     9    20    1
     16     9    21    1
     17    10    11    1
     18    10    15    1
     19    10    22    1
     20    11    12    1
     21    11    23    1
     22    11    24    1
     23    12    13    1
     24    12    25    1
     25    12    26    1
     26    13    14    1
     27    13    27    1
     28    13    28    1
     29    14    15    1
     30    14    16    1
     31    14    29    1
     32    15    30    1
     33    15    31    1
     34    16    32    1
     35    16    33    1
@<TRIPOS>MOLECULE
CHEMBL3329525_LIG
26 27 1 0 0
SMALL
USER_CHARGES

@<TRIPOS>ATOM
1 O1 220.6049 152.2009 176.1873 O.2 778 ligands_prepared 0.0000
2 C2 219.5332 152.8009 176.1905 C.2 778 ligands_prepared 0.0000
3 C3 219.0762 153.5744 177.3795 C.3 778 ligands_prepared 0.0000
4 C4 218.8092 152.8075 178.6592 C.3 778 ligands_prepared 0.0000
5 C5 219.9942 153.7276 178.5756 C.3 778 ligands_prepared 0.0000
6 N6 218.7611 152.7852 175.0590 N.am 778 ligands_prepared 0.0000
7 C7 219.2014 152.0799 173.8499 C.3 778 ligands_prepared 0.0000
8 C8 218.1898 150.9983 173.4403 C.3 778 ligands_prepared 0.0000
9 N9 216.8082 151.5915 173.3007 N.4 778 ligands_prepared 1.0000
10 C10 216.4010 152.2437 174.5999 C.3 778 ligands_prepared 0.0000
11 C11 217.4087 153.3425 174.9743 C.3 778 ligands_prepared 0.0000
12 H12 218.4115 154.4086 177.1046 H 778 ligands_prepared 0.0000
13 H13 217.9487 153.0753 179.2726 H 778 ligands_prepared 0.0000
14 H14 218.9625 151.7273 178.6736 H 778 ligands_prepared 0.0000
15 H15 220.0003 154.6711 179.1225 H 778 ligands_prepared 0.0000
16 H16 221.0033 153.3187 178.5386 H 778 ligands_prepared 0.0000
17 H17 219.3408 152.8251 173.0265 H 778 ligands_prepared 0.0000
18 H18 220.2040 151.6067 174.0104 H 778 ligands_prepared 0.0000
19 H19 218.4880 150.5400 172.4647 H 778 ligands_prepared 0.0000
20 H20 218.1596 150.1659 174.1824 H 778 ligands_prepared 0.0000
21 H21 216.1207 150.8477 173.0387 H 778 ligands_prepared 0.0000
22 H22 216.7940 152.2934 172.5262 H 778 ligands_prepared 0.0000
23 H23 216.3274 151.4674 175.3977 H 778 ligands_prepared 0.0000
24 H24 215.3758 152.6749 174.4899 H 778 ligands_prepared 0.0000
25 H25 217.0965 153.8138 175.9374 H 778 ligands_prepared 0.0000
26 H26 217.3980 154.1674 174.2166 H 778 ligands_prepared 0.0000
@<TRIPOS>BOND
      1     1     2    2
      2     2     3    1
      3     2     6   am
      4     3     4    1
      5     3     5    1
      6     3    12    1
      7     4     5    1
      8     4    13    1
      9     4    14    1
     10     5    15    1
     11     5    16    1
     12     7     6    1
     13     6    11    1
     14     7     8    1
     15     7    17    1
     16     7    18    1
     17     8     9    1
     18     8    19    1
     19     8    20    1
     20     9    10    1
     21     9    21    1
     22     9    22    1
     23    10    11    1
     24    10    23    1
     25    10    24    1
     26    11    25    1
     27    11    26    1
@<TRIPOS>MOLECULE
CHEMBL3329527_LIG
30 32 1 0 0
SMALL
USER_CHARGES

@<TRIPOS>ATOM
1 O1 220.7746 152.2004 176.5933 O.2 778 ligands_prepared 0.0000
2 C2 219.7638 152.8968 176.5729 C.2 778 ligands_prepared 0.0000
3 C3 219.3394 153.7094 177.7471 C.3 778 ligands_prepared 0.0000
4 C4 218.8563 153.0108 179.0028 C.3 778 ligands_prepared 0.0000
5 C5 220.1945 153.6948 179.0000 C.3 778 ligands_prepared 0.0000
6 N6 219.0436 152.9707 175.4009 N.am 778 ligands_prepared 0.0000
7 C7 217.7194 153.6052 175.3630 C.3 778 ligands_prepared 0.0000
8 C8 216.6266 152.6626 174.8181 C.3 778 ligands_prepared 0.0000
9 C9 216.4133 152.7918 173.2987 C.3 778 ligands_prepared 0.0000
10 C10 217.4403 151.8275 172.6616 C.3 778 ligands_prepared 0.0000
11 C11 218.1861 151.1921 173.8487 C.3 778 ligands_prepared 0.0000
12 C12 219.3925 152.0202 174.3261 C.3 778 ligands_prepared 0.0000
13 N13 217.1407 151.2306 174.9629 N.4 778 ligands_prepared 1.0000
14 H14 218.8677 154.6608 177.4490 H 778 ligands_prepared 0.0000
15 H15 218.0173 153.4339 179.5552 H 778 ligands_prepared 0.0000
16 H16 218.8028 151.9227 179.0341 H 778 ligands_prepared 0.0000
17 H17 221.1079 153.1002 179.0272 H 778 ligands_prepared 0.0000
18 H18 220.3331 154.6232 179.5546 H 778 ligands_prepared 0.0000
19 H19 217.7563 154.5182 174.7156 H 778 ligands_prepared 0.0000
20 H20 217.4408 153.9575 176.3879 H 778 ligands_prepared 0.0000
21 H21 215.6813 152.7942 175.4022 H 778 ligands_prepared 0.0000
22 H22 216.5469 153.8304 172.9507 H 778 ligands_prepared 0.0000
23 H23 215.3792 152.5134 173.0176 H 778 ligands_prepared 0.0000
24 H24 218.1296 152.3506 171.9753 H 778 ligands_prepared 0.0000
25 H25 216.9351 151.0554 172.0496 H 778 ligands_prepared 0.0000
26 H26 218.4980 150.1346 173.6499 H 778 ligands_prepared 0.0000
27 H27 220.2110 151.3424 174.6780 H 778 ligands_prepared 0.0000
28 H28 219.8160 152.5881 173.4565 H 778 ligands_prepared 0.0000
29 H29 216.3798 150.5361 174.7920 H 778 ligands_prepared 0.0000
30 H30 217.5334 151.0298 175.9018 H 778 ligands_prepared 0.0000
@<TRIPOS>BOND
      1     1     2    2
      2     2     3    1
      3     2     6   am
      4     3     4    1
      5     3     5    1
      6     3    14    1
      7     4     5    1
      8     4    15    1
      9     4    16    1
     10     5    17    1
     11     5    18    1
     12     7     6    1
     13     6    12    1
     14     7     8    1
     15     7    19    1
     16     7    20    1
     17     8     9    1
     18     8    13    1
     19     8    21    1
     20     9    10    1
     21     9    22    1
     22     9    23    1
     23    10    11    1
     24    10    24    1
     25    10    25    1
     26    11    12    1
     27    11    13    1
     28    11    26    1
     29    12    27    1
     30    12    28    1
     31    13    29    1
     32    13    30    1
@<TRIPOS>MOLECULE
CHEMBL3329528_LIG
27 29 1 0 0
SMALL
USER_CHARGES

@<TRIPOS>ATOM
1 O1 220.7780 152.5186 176.1906 O.2 778 ligands_prepared 0.0000
2 C2 219.6099 152.8700 176.3278 C.2 778 ligands_prepared 0.0000
3 C3 219.1203 153.5678 177.5453 C.3 778 ligands_prepared 0.0000
4 C4 220.0888 153.9170 178.6571 C.3 778 ligands_prepared 0.0000
5 C5 219.0995 152.8032 178.8540 C.3 778 ligands_prepared 0.0000
6 N6 218.7196 152.5853 175.3234 N.am 778 ligands_prepared 0.0000
7 C7 217.3187 153.0422 175.4733 C.3 778 ligands_prepared 0.0000
8 C8 216.3975 152.2919 174.5007 C.3 778 ligands_prepared 0.0000
9 C9 216.9250 152.4946 173.0519 C.3 778 ligands_prepared 0.0000
10 C10 217.9012 151.3226 173.3551 C.3 778 ligands_prepared 0.0000
11 C11 219.1285 151.8746 174.0962 C.3 778 ligands_prepared 0.0000
12 N12 216.8954 150.8239 174.4259 N.4 778 ligands_prepared 1.0000
13 H13 218.2944 154.2670 177.3267 H 778 ligands_prepared 0.0000
14 H14 221.1482 153.6969 178.5471 H 778 ligands_prepared 0.0000
15 H15 219.9634 154.8625 179.1885 H 778 ligands_prepared 0.0000
16 H16 218.2534 152.9345 179.5306 H 778 ligands_prepared 0.0000
17 H17 219.4443 151.7697 178.8729 H 778 ligands_prepared 0.0000
18 H18 216.9921 152.8962 176.5334 H 778 ligands_prepared 0.0000
19 H19 217.2519 154.1414 175.2758 H 778 ligands_prepared 0.0000
20 H20 215.3197 152.4012 174.7026 H 778 ligands_prepared 0.0000
21 H21 216.1932 152.2983 172.2570 H 778 ligands_prepared 0.0000
22 H22 217.3825 153.4650 172.8307 H 778 ligands_prepared 0.0000
23 H23 218.1291 150.5904 172.5632 H 778 ligands_prepared 0.0000
24 H24 219.8384 151.0497 174.3537 H 778 ligands_prepared 0.0000
25 H25 219.6853 152.5678 173.4148 H 778 ligands_prepared 0.0000
26 H26 216.1926 150.1572 174.0666 H 778 ligands_prepared 0.0000
27 H27 217.3035 150.4364 175.2884 H 778 ligands_prepared 0.0000
@<TRIPOS>BOND
      1     1     2    2
      2     2     3    1
      3     2     6   am
      4     3     4    1
      5     3     5    1
      6     3    13    1
      7     4     5    1
      8     4    14    1
      9     4    15    1
     10     5    16    1
     11     5    17    1
     12     7     6    1
     13     6    11    1
     14     7     8    1
     15     7    18    1
     16     7    19    1
     17     8     9    1
     18     8    12    1
     19     8    20    1
     20     9    10    1
     21     9    21    1
     22     9    22    1
     23    10    11    1
     24    10    12    1
     25    10    23    1
     26    11    24    1
     27    11    25    1
     28    12    26    1
     29    12    27    1
@<TRIPOS>MOLECULE
CHEMBL3329529_LIG
23 24 1 0 0
SMALL
USER_CHARGES

@<TRIPOS>ATOM
1 C1 219.1629 153.5153 177.7430 C.3 778 ligands_prepared 0.0000
2 C2 219.6108 152.8565 176.4836 C.2 778 ligands_prepared 0.0000
3 O3 220.7753 152.5007 176.3059 O.2 778 ligands_prepared 0.0000
4 N4 218.7067 152.6325 175.4748 N.am 778 ligands_prepared 0.0000
5 C5 217.2888 153.0282 175.6035 C.3 778 ligands_prepared 0.0000
6 C6 216.4337 152.3876 174.5037 C.3 778 ligands_prepared 0.0000
7 C7 217.0661 152.6800 173.1137 C.3 778 ligands_prepared 0.0000
8 C8 217.9955 151.4655 173.3983 C.3 778 ligands_prepared 0.0000
9 C9 219.1756 151.9216 174.2631 C.3 778 ligands_prepared 0.0000
10 N10 216.9044 150.9169 174.3563 N.4 778 ligands_prepared 1.0000
11 H11 218.6996 154.4998 177.5691 H 778 ligands_prepared 0.0000
12 H12 218.4244 152.9030 178.2907 H 778 ligands_prepared 0.0000
13 H13 220.0125 153.6753 178.4314 H 778 ligands_prepared 0.0000
14 H14 217.1957 154.1427 175.5427 H 778 ligands_prepared 0.0000
15 H15 216.9049 152.7332 176.6130 H 778 ligands_prepared 0.0000
16 H16 215.3469 152.5122 174.6371 H 778 ligands_prepared 0.0000
17 H17 217.5537 153.6537 172.9910 H 778 ligands_prepared 0.0000
18 H18 216.3849 152.5520 172.2612 H 778 ligands_prepared 0.0000
19 H19 218.2619 150.7880 172.5698 H 778 ligands_prepared 0.0000
20 H20 219.8446 152.5904 173.6648 H 778 ligands_prepared 0.0000
21 H21 219.8073 151.0498 174.5696 H 778 ligands_prepared 0.0000
22 H22 216.2150 150.2963 173.8995 H 778 ligands_prepared 0.0000
23 H23 217.2400 150.4597 175.2148 H 778 ligands_prepared 0.0000
@<TRIPOS>BOND
      1     1     2    1
      2     1    11    1
      3     1    12    1
      4     1    13    1
      5     2     3    2
      6     2     4   am
      7     5     4    1
      8     4     9    1
      9     5     6    1
     10     5    14    1
     11     5    15    1
     12     6     7    1
     13     6    10    1
     14     6    16    1
     15     7     8    1
     16     7    17    1
     17     7    18    1
     18     8     9    1
     19     8    10    1
     20     8    19    1
     21     9    20    1
     22     9    21    1
     23    10    22    1
     24    10    23    1
@<TRIPOS>MOLECULE
CHEMBL3329530_LIG
26 27 1 0 0
SMALL
USER_CHARGES

@<TRIPOS>ATOM
1 C1 219.8097 153.3934 178.7814 C.3 778 ligands_prepared 0.0000
2 C2 218.8315 153.4002 177.6106 C.3 778 ligands_prepared 0.0000
3 C3 219.4339 152.7162 176.4169 C.2 778 ligands_prepared 0.0000
4 O4 220.5994 152.3338 176.3737 O.2 778 ligands_prepared 0.0000
5 N5 218.6559 152.5103 175.3022 N.am 778 ligands_prepared 0.0000
6 C6 217.2295 152.9033 175.3878 C.3 778 ligands_prepared 0.0000
7 C7 216.4742 152.5394 174.1061 C.3 778 ligands_prepared 0.0000
8 C8 217.2793 153.0453 172.8749 C.3 778 ligands_prepared 0.0000
9 C9 218.1034 151.7325 173.0064 C.3 778 ligands_prepared 0.0000
10 C10 219.1999 151.9150 174.0635 C.3 778 ligands_prepared 0.0000
11 N11 216.8842 151.0932 173.7211 N.4 778 ligands_prepared 1.0000
12 H12 220.7517 153.8904 178.5173 H 778 ligands_prepared 0.0000
13 H13 219.3870 153.9153 179.6490 H 778 ligands_prepared 0.0000
14 H14 220.0605 152.3682 179.0898 H 778 ligands_prepared 0.0000
15 H15 217.8754 152.9037 177.8986 H 778 ligands_prepared 0.0000
16 H16 218.5498 154.4460 177.3540 H 778 ligands_prepared 0.0000
17 H17 217.1557 154.0058 175.5711 H 778 ligands_prepared 0.0000
18 H18 216.7689 152.4085 176.2814 H 778 ligands_prepared 0.0000
19 H19 215.3856 152.7118 174.1475 H 778 ligands_prepared 0.0000
20 H20 216.6987 153.1378 171.9458 H 778 ligands_prepared 0.0000
21 H21 217.8326 153.9831 173.0019 H 778 ligands_prepared 0.0000
22 H22 218.4291 151.2078 172.0933 H 778 ligands_prepared 0.0000
23 H23 220.0049 152.5769 173.6448 H 778 ligands_prepared 0.0000
24 H24 219.6841 150.9325 174.2959 H 778 ligands_prepared 0.0000
25 H25 216.2202 150.6222 173.0850 H 778 ligands_prepared 0.0000
26 H26 217.0978 150.4561 174.5017 H 778 ligands_prepared 0.0000
@<TRIPOS>BOND
      1     1     2    1
      2     1    12    1
      3     1    13    1
      4     1    14    1
      5     2     3    1
      6     2    15    1
      7     2    16    1
      8     3     4    2
      9     3     5   am
     10     6     5    1
     11     5    10    1
     12     6     7    1
     13     6    17    1
     14     6    18    1
     15     7     8    1
     16     7    11    1
     17     7    19    1
     18     8     9    1
     19     8    20    1
     20     8    21    1
     21     9    10    1
     22     9    11    1
     23     9    22    1
     24    10    23    1
     25    10    24    1
     26    11    25    1
     27    11    26    1
@<TRIPOS>MOLECULE
CHEMBL3329531_LIG
29 30 1 0 0
SMALL
USER_CHARGES

@<TRIPOS>ATOM
1 C1 219.5512 153.6969 180.1996 C.3 778 ligands_prepared 0.0000
2 C2 220.1520 153.6763 178.7953 C.3 778 ligands_prepared 0.0000
3 C3 219.0467 153.4755 177.7506 C.3 778 ligands_prepared 0.0000
4 C4 219.5729 152.7788 176.5275 C.2 778 ligands_prepared 0.0000
5 O5 220.7505 152.4655 176.3915 O.2 778 ligands_prepared 0.0000
6 N6 218.7094 152.4970 175.4916 N.am 778 ligands_prepared 0.0000
7 C7 217.3091 152.9707 175.5868 C.3 778 ligands_prepared 0.0000
8 C8 216.4312 152.2858 174.5270 C.3 778 ligands_prepared 0.0000
9 C9 216.9987 152.5910 173.1104 C.3 778 ligands_prepared 0.0000
10 C10 217.9908 151.4218 173.3759 C.3 778 ligands_prepared 0.0000
11 C11 219.1775 151.9362 174.2079 C.3 778 ligands_prepared 0.0000
12 N12 216.9473 150.8313 174.3600 N.4 778 ligands_prepared 1.0000
13 H13 220.3239 153.8374 180.9658 H 778 ligands_prepared 0.0000
14 H14 219.0285 152.7586 180.4277 H 778 ligands_prepared 0.0000
15 H15 218.8223 154.5087 180.3149 H 778 ligands_prepared 0.0000
16 H16 220.7010 154.6184 178.5947 H 778 ligands_prepared 0.0000
17 H17 220.9083 152.8705 178.7089 H 778 ligands_prepared 0.0000
18 H18 218.6053 154.4588 177.4752 H 778 ligands_prepared 0.0000
19 H19 218.2100 152.8945 178.1986 H 778 ligands_prepared 0.0000
20 H20 217.2655 154.0789 175.4466 H 778 ligands_prepared 0.0000
21 H21 216.9232 152.7702 176.6176 H 778 ligands_prepared 0.0000
22 H22 215.3469 152.3763 174.6999 H 778 ligands_prepared 0.0000
23 H23 216.2925 152.4132 172.2848 H 778 ligands_prepared 0.0000
24 H24 217.4307 153.5839 172.9485 H 778 ligands_prepared 0.0000
25 H25 218.2741 150.7576 172.5442 H 778 ligands_prepared 0.0000
26 H26 219.9003 151.1054 174.4034 H 778 ligands_prepared 0.0000
27 H27 219.7298 152.7123 173.6207 H 778 ligands_prepared 0.0000
28 H28 217.3202 150.3798 175.2045 H 778 ligands_prepared 0.0000
29 H29 216.2673 150.1944 173.9145 H 778 ligands_prepared 0.0000
@<TRIPOS>BOND
      1     1     2    1
      2     1    13    1
      3     1    14    1
      4     1    15    1
      5     2     3    1
      6     2    16    1
      7     2    17    1
      8     3     4    1
      9     3    18    1
     10     3    19    1
     11     4     5    2
     12     4     6   am
     13     7     6    1
     14     6    11    1
     15     7     8    1
     16     7    20    1
     17     7    21    1
     18     8     9    1
     19     8    12    1
     20     8    22    1
     21     9    10    1
     22     9    23    1
     23     9    24    1
     24    10    11    1
     25    10    12    1
     26    10    25    1
     27    11    26    1
     28    11    27    1
     29    12    28    1
     30    12    29    1
@<TRIPOS>MOLECULE
CHEMBL3329532_LIG
29 30 1 0 0
SMALL
USER_CHARGES

@<TRIPOS>ATOM
1 C1 218.2278 152.9122 178.3149 C.3 778 ligands_prepared 0.0000
2 C2 219.3487 153.6111 177.5420 C.3 778 ligands_prepared 0.0000
3 C3 220.6095 153.6969 178.4043 C.3 778 ligands_prepared 0.0000
4 C4 219.6779 152.8168 176.2896 C.2 778 ligands_prepared 0.0000
5 O5 220.8017 152.3736 176.0777 O.2 778 ligands_prepared 0.0000
6 N6 218.7109 152.5720 175.3394 N.am 778 ligands_prepared 0.0000
7 C7 217.3277 153.0762 175.4369 C.3 778 ligands_prepared 0.0000
8 C8 216.3986 152.2812 174.5005 C.3 778 ligands_prepared 0.0000
9 C9 216.8896 152.4346 173.0318 C.3 778 ligands_prepared 0.0000
10 C10 217.9014 151.3004 173.3672 C.3 778 ligands_prepared 0.0000
11 C11 219.1218 151.8973 174.0843 C.3 778 ligands_prepared 0.0000
12 N12 216.9096 150.8170 174.4591 N.4 778 ligands_prepared 1.0000
13 H13 217.9523 153.4877 179.2080 H 778 ligands_prepared 0.0000
14 H14 218.5320 151.9101 178.6444 H 778 ligands_prepared 0.0000
15 H15 217.3243 152.7930 177.7039 H 778 ligands_prepared 0.0000
16 H16 219.0044 154.6415 177.2658 H 778 ligands_prepared 0.0000
17 H17 220.9833 152.6994 178.6734 H 778 ligands_prepared 0.0000
18 H18 220.4041 154.2318 179.3427 H 778 ligands_prepared 0.0000
19 H19 221.4234 154.2298 177.8999 H 778 ligands_prepared 0.0000
20 H20 216.9714 153.0035 176.4917 H 778 ligands_prepared 0.0000
21 H21 217.2845 154.1582 175.1558 H 778 ligands_prepared 0.0000
22 H22 215.3254 152.3907 174.7233 H 778 ligands_prepared 0.0000
23 H23 216.1422 152.1706 172.2690 H 778 ligands_prepared 0.0000
24 H24 217.3046 153.4052 172.7452 H 778 ligands_prepared 0.0000
25 H25 218.1419 150.5527 172.5948 H 778 ligands_prepared 0.0000
26 H26 219.6343 152.6259 173.4093 H 778 ligands_prepared 0.0000
27 H27 219.8729 151.1037 174.3210 H 778 ligands_prepared 0.0000
28 H28 216.2091 150.1384 174.1176 H 778 ligands_prepared 0.0000
29 H29 217.3266 150.4537 175.3265 H 778 ligands_prepared 0.0000
@<TRIPOS>BOND
      1     1     2    1
      2     1    13    1
      3     1    14    1
      4     1    15    1
      5     2     3    1
      6     2     4    1
      7     2    16    1
      8     3    17    1
      9     3    18    1
     10     3    19    1
     11     4     5    2
     12     4     6   am
     13     7     6    1
     14     6    11    1
     15     7     8    1
     16     7    20    1
     17     7    21    1
     18     8     9    1
     19     8    12    1
     20     8    22    1
     21     9    10    1
     22     9    23    1
     23     9    24    1
     24    10    11    1
     25    10    12    1
     26    10    25    1
     27    11    26    1
     28    11    27    1
     29    12    28    1
     30    12    29    1
@<TRIPOS>MOLECULE
CHEMBL3329533_LIG
30 32 1 0 0
SMALL
USER_CHARGES

@<TRIPOS>ATOM
1 O1 220.8304 152.5143 176.0861 O.2 778 ligands_prepared 0.0000
2 C2 219.6907 152.9189 176.2977 C.2 778 ligands_prepared 0.0000
3 C3 219.3216 153.7623 177.4783 C.3 778 ligands_prepared 0.0000
4 C4 220.4944 153.9724 178.4805 C.3 778 ligands_prepared 0.0000
5 C5 219.6622 153.2949 179.5997 C.3 778 ligands_prepared 0.0000
6 C6 218.5196 153.0248 178.5878 C.3 778 ligands_prepared 0.0000
7 N7 218.7072 152.5624 175.4057 N.am 778 ligands_prepared 0.0000
8 C8 217.3145 153.0331 175.5491 C.3 778 ligands_prepared 0.0000
9 C9 216.4018 152.3832 174.4997 C.3 778 ligands_prepared 0.0000
10 C10 217.0164 152.5953 173.0874 C.3 778 ligands_prepared 0.0000
11 C11 217.8926 151.3477 173.3966 C.3 778 ligands_prepared 0.0000
12 C12 219.1137 151.7766 174.2166 C.3 778 ligands_prepared 0.0000
13 N13 216.8059 150.8890 174.4043 N.4 778 ligands_prepared 1.0000
14 H14 218.8349 154.7056 177.1607 H 778 ligands_prepared 0.0000
15 H15 220.7476 155.0219 178.6576 H 778 ligands_prepared 0.0000
16 H16 221.4179 153.4454 178.2197 H 778 ligands_prepared 0.0000
17 H17 219.3901 153.9655 180.4213 H 778 ligands_prepared 0.0000
18 H18 220.1176 152.3962 180.0261 H 778 ligands_prepared 0.0000
19 H19 218.3304 151.9660 178.3823 H 778 ligands_prepared 0.0000
20 H20 217.5648 153.5028 178.8316 H 778 ligands_prepared 0.0000
21 H21 216.9448 152.8000 176.5801 H 778 ligands_prepared 0.0000
22 H22 217.2660 154.1462 175.4389 H 778 ligands_prepared 0.0000
23 H23 215.3245 152.5603 174.6532 H 778 ligands_prepared 0.0000
24 H24 217.5474 153.5395 172.9233 H 778 ligands_prepared 0.0000
25 H25 216.3128 152.4740 172.2521 H 778 ligands_prepared 0.0000
26 H26 218.1059 150.6286 172.5897 H 778 ligands_prepared 0.0000
27 H27 219.7045 150.8878 174.5543 H 778 ligands_prepared 0.0000
28 H28 219.8050 152.3826 173.5782 H 778 ligands_prepared 0.0000
29 H29 216.0800 150.2793 173.9963 H 778 ligands_prepared 0.0000
30 H30 217.1468 150.4560 175.2750 H 778 ligands_prepared 0.0000
@<TRIPOS>BOND
      1     1     2    2
      2     2     3    1
      3     2     7   am
      4     4     3    1
      5     3     6    1
      6     3    14    1
      7     4     5    1
      8     4    15    1
      9     4    16    1
     10     5     6    1
     11     5    17    1
     12     5    18    1
     13     6    19    1
     14     6    20    1
     15     8     7    1
     16     7    12    1
     17     8     9    1
     18     8    21    1
     19     8    22    1
     20     9    10    1
     21     9    13    1
     22     9    23    1
     23    10    11    1
     24    10    24    1
     25    10    25    1
     26    11    12    1
     27    11    13    1
     28    11    26    1
     29    12    27    1
     30    12    28    1
     31    13    29    1
     32    13    30    1
@<TRIPOS>MOLECULE
CHEMBL3329534_LIG
33 35 1 0 0
SMALL
USER_CHARGES

@<TRIPOS>ATOM
1 O1 221.0113 152.1985 176.5874 O.2 778 ligands_prepared 0.0000
2 C2 219.9685 152.8338 176.7023 C.2 778 ligands_prepared 0.0000
3 C3 219.6472 153.6964 177.8980 C.3 778 ligands_prepared 0.0000
4 C4 218.5007 153.0849 178.7316 C.3 778 ligands_prepared 0.0000
5 C5 218.8249 153.3985 180.1276 C.3 778 ligands_prepared 0.0000
6 C6 220.4139 154.1975 180.1922 C.3 778 ligands_prepared 0.0000
7 C7 220.8349 153.7391 178.7860 C.3 778 ligands_prepared 0.0000
8 N8 219.0606 152.7446 175.6715 N.am 778 ligands_prepared 0.0000
9 C9 217.7650 153.4456 175.8447 C.3 778 ligands_prepared 0.0000
10 C10 216.7229 152.9232 174.8495 C.3 778 ligands_prepared 0.0000
11 C11 217.3017 153.0292 173.4097 C.3 778 ligands_prepared 0.0000
12 C12 217.9996 151.6719 173.7008 C.3 778 ligands_prepared 0.0000
13 C13 219.3071 151.9320 174.4626 C.3 778 ligands_prepared 0.0000
14 N14 216.9033 151.3844 174.7609 N.4 778 ligands_prepared 1.0000
15 H15 219.3492 154.7196 177.5639 H 778 ligands_prepared 0.0000
16 H16 218.4551 151.9877 178.6016 H 778 ligands_prepared 0.0000
17 H17 217.5208 153.4755 178.4089 H 778 ligands_prepared 0.0000
18 H18 218.6549 152.5156 180.7625 H 778 ligands_prepared 0.0000
19 H19 218.1395 154.1863 180.4871 H 778 ligands_prepared 0.0000
20 H20 221.1140 153.8044 180.9505 H 778 ligands_prepared 0.0000
21 H21 220.4318 155.2935 180.2862 H 778 ligands_prepared 0.0000
22 H22 221.3354 152.7568 178.8180 H 778 ligands_prepared 0.0000
23 H23 221.5735 154.4369 178.3499 H 778 ligands_prepared 0.0000
24 H24 217.9083 154.5455 175.7033 H 778 ligands_prepared 0.0000
25 H25 217.4137 153.3110 176.8986 H 778 ligands_prepared 0.0000
26 H26 215.6909 153.2546 175.0422 H 778 ligands_prepared 0.0000
27 H27 216.5547 153.0064 172.6047 H 778 ligands_prepared 0.0000
28 H28 217.9601 153.8834 173.2102 H 778 ligands_prepared 0.0000
29 H29 218.0740 150.9194 172.8995 H 778 ligands_prepared 0.0000
30 H30 220.0286 152.4589 173.7870 H 778 ligands_prepared 0.0000
31 H31 219.7853 150.9614 174.7429 H 778 ligands_prepared 0.0000
32 H32 216.0807 150.8810 174.3928 H 778 ligands_prepared 0.0000
33 H33 217.2172 150.9142 175.6214 H 778 ligands_prepared 0.0000
@<TRIPOS>BOND
      1     1     2    2
      2     2     3    1
      3     2     8   am
      4     3     4    1
      5     3     7    1
      6     3    15    1
      7     4     5    1
      8     4    16    1
      9     4    17    1
     10     5     6    1
     11     5    18    1
     12     5    19    1
     13     6     7    1
     14     6    20    1
     15     6    21    1
     16     7    22    1
     17     7    23    1
     18     9     8    1
     19     8    13    1
     20     9    10    1
     21     9    24    1
     22     9    25    1
     23    10    11    1
     24    10    14    1
     25    10    26    1
     26    11    12    1
     27    11    27    1
     28    11    28    1
     29    12    13    1
     30    12    14    1
     31    12    29    1
     32    13    30    1
     33    13    31    1
     34    14    32    1
     35    14    33    1
@<TRIPOS>MOLECULE
CHEMBL3329535_LIG
31 33 1 0 0
SMALL
USER_CHARGES

@<TRIPOS>ATOM
1 O1 220.8773 152.6148 176.0436 O.2 778 ligands_prepared 0.0000
2 C2 219.7344 153.0050 176.2639 C.2 778 ligands_prepared 0.0000
3 C3 219.3554 153.7905 177.4942 C.3 778 ligands_prepared 0.0000
4 C4 218.2725 153.0626 178.3385 C.3 778 ligands_prepared 0.0000
5 C5 218.8137 153.0796 179.7386 C.2 778 ligands_prepared 0.0000
6 C6 220.0578 153.5703 179.7956 C.2 778 ligands_prepared 0.0000
7 C7 220.5716 153.9780 178.4444 C.3 778 ligands_prepared 0.0000
8 N8 218.7625 152.6820 175.3457 N.am 778 ligands_prepared 0.0000
9 C9 217.3758 153.1765 175.4632 C.3 778 ligands_prepared 0.0000
10 C10 216.4398 152.4377 174.4975 C.3 778 ligands_prepared 0.0000
11 C11 217.0168 152.5115 173.0560 C.3 778 ligands_prepared 0.0000
12 C12 217.9060 151.3017 173.4628 C.3 778 ligands_prepared 0.0000
13 C13 219.1452 151.8116 174.2083 C.3 778 ligands_prepared 0.0000
14 N14 216.8377 150.9394 174.5305 N.4 778 ligands_prepared 1.0000
15 H15 218.9550 154.7901 177.1909 H 778 ligands_prepared 0.0000
16 H16 218.1009 152.0254 177.9884 H 778 ligands_prepared 0.0000
17 H17 217.2960 153.5741 178.2588 H 778 ligands_prepared 0.0000
18 H18 218.2092 152.7179 180.5533 H 778 ligands_prepared 0.0000
19 H19 220.6832 153.6923 180.6636 H 778 ligands_prepared 0.0000
20 H20 220.9335 155.0227 178.4367 H 778 ligands_prepared 0.0000
21 H21 221.4368 153.3569 178.1424 H 778 ligands_prepared 0.0000
22 H22 217.0178 153.0518 176.5166 H 778 ligands_prepared 0.0000
23 H23 217.3398 154.2729 175.2388 H 778 ligands_prepared 0.0000
24 H24 215.3674 152.6354 174.6603 H 778 ligands_prepared 0.0000
25 H25 216.2920 152.3059 172.2569 H 778 ligands_prepared 0.0000
26 H26 217.5406 153.4349 172.7829 H 778 ligands_prepared 0.0000
27 H27 218.1035 150.5074 172.7257 H 778 ligands_prepared 0.0000
28 H28 219.7587 150.9578 174.5951 H 778 ligands_prepared 0.0000
29 H29 219.8058 152.3709 173.5006 H 778 ligands_prepared 0.0000
30 H30 217.1924 150.5815 175.4284 H 778 ligands_prepared 0.0000
31 H31 216.1012 150.2999 174.1884 H 778 ligands_prepared 0.0000
@<TRIPOS>BOND
      1     1     2    2
      2     2     3    1
      3     2     8   am
      4     4     3    1
      5     3     7    1
      6     3    15    1
      7     4     5    1
      8     4    16    1
      9     4    17    1
     10     5     6    2
     11     5    18    1
     12     6     7    1
     13     6    19    1
     14     7    20    1
     15     7    21    1
     16     9     8    1
     17     8    13    1
     18     9    10    1
     19     9    22    1
     20     9    23    1
     21    10    11    1
     22    10    14    1
     23    10    24    1
     24    11    12    1
     25    11    25    1
     26    11    26    1
     27    12    13    1
     28    12    14    1
     29    12    27    1
     30    13    28    1
     31    13    29    1
     32    14    30    1
     33    14    31    1
@<TRIPOS>MOLECULE
CHEMBL3329537_LIG
27 29 1 0 0
SMALL
USER_CHARGES

@<TRIPOS>ATOM
1 O1 220.8236 152.5732 176.1081 O.2 778 ligands_prepared 0.0000
2 C2 219.6630 152.9102 176.3249 C.2 778 ligands_prepared 0.0000
3 C3 219.2532 153.6179 177.5654 C.3 778 ligands_prepared 0.0000
4 C4 219.0970 152.8145 178.8451 C.3 778 ligands_prepared 0.0000
5 C5 220.2254 153.7976 178.7225 C.3 778 ligands_prepared 0.0000
6 F6 221.4477 153.2752 178.5388 F 778 ligands_prepared 0.0000
7 N7 218.7003 152.5818 175.4080 N.am 778 ligands_prepared 0.0000
8 C8 217.3024 153.0382 175.5546 C.3 778 ligands_prepared 0.0000
9 C9 216.4034 152.4220 174.4758 C.3 778 ligands_prepared 0.0000
10 C10 217.0456 152.6388 173.0754 C.3 778 ligands_prepared 0.0000
11 C11 217.8992 151.3767 173.3870 C.3 778 ligands_prepared 0.0000
12 C12 219.1113 151.7824 174.2304 C.3 778 ligands_prepared 0.0000
13 N13 216.7840 150.9234 174.3678 N.4 778 ligands_prepared 1.0000
14 H14 218.5288 154.4286 177.3654 H 778 ligands_prepared 0.0000
15 H15 218.2585 153.0329 179.5121 H 778 ligands_prepared 0.0000
16 H16 219.2845 151.7381 178.8257 H 778 ligands_prepared 0.0000
17 H17 220.2644 154.7431 179.2906 H 778 ligands_prepared 0.0000
18 H18 216.9276 152.7692 176.5750 H 778 ligands_prepared 0.0000
19 H19 217.2508 154.1538 175.4817 H 778 ligands_prepared 0.0000
20 H20 215.3278 152.6192 174.6092 H 778 ligands_prepared 0.0000
21 H21 216.3526 152.5309 172.2293 H 778 ligands_prepared 0.0000
22 H22 217.5921 153.5764 172.9242 H 778 ligands_prepared 0.0000
23 H23 218.1177 150.6604 172.5784 H 778 ligands_prepared 0.0000
24 H24 219.8293 152.3689 173.6014 H 778 ligands_prepared 0.0000
25 H25 219.6757 150.8816 174.5845 H 778 ligands_prepared 0.0000
26 H26 216.0538 150.3341 173.9343 H 778 ligands_prepared 0.0000
27 H27 217.0963 150.4702 175.2387 H 778 ligands_prepared 0.0000
@<TRIPOS>BOND
      1     1     2    2
      2     2     3    1
      3     2     7   am
      4     3     4    1
      5     3     5    1
      6     3    14    1
      7     4     5    1
      8     4    15    1
      9     4    16    1
     10     5     6    1
     11     5    17    1
     12     8     7    1
     13     7    12    1
     14     8     9    1
     15     8    18    1
     16     8    19    1
     17     9    10    1
     18     9    13    1
     19     9    20    1
     20    10    11    1
     21    10    21    1
     22    10    22    1
     23    11    12    1
     24    11    13    1
     25    11    23    1
     26    12    24    1
     27    12    25    1
     28    13    26    1
     29    13    27    1
@<TRIPOS>MOLECULE
CHEMBL3329538_LIG
27 29 1 0 0
SMALL
USER_CHARGES

@<TRIPOS>ATOM
1 O1 218.1778 153.4129 177.4997 O.2 778 ligands_prepared 0.0000
2 C2 218.9620 153.0023 176.6498 C.2 778 ligands_prepared 0.0000
3 C3 220.4219 152.8801 176.8950 C.3 778 ligands_prepared 0.0000
4 C4 220.8997 151.9243 177.9747 C.3 778 ligands_prepared 0.0000
5 C5 221.0431 153.4058 178.1806 C.3 778 ligands_prepared 0.0000
6 F6 220.1897 153.9713 179.0471 F 778 ligands_prepared 0.0000
7 N7 218.4642 152.5906 175.4414 N.am 778 ligands_prepared 0.0000
8 C8 216.9956 152.6285 175.2503 C.3 778 ligands_prepared 0.0000
9 C9 216.6003 152.0490 173.8887 C.3 778 ligands_prepared 0.0000
10 C10 217.4443 152.7357 172.7771 C.3 778 ligands_prepared 0.0000
11 C11 218.5521 151.7005 173.1250 C.3 778 ligands_prepared 0.0000
12 C12 219.3571 152.1976 174.3307 C.3 778 ligands_prepared 0.0000
13 N13 217.4431 150.7639 173.6709 N.4 778 ligands_prepared 1.0000
14 H14 221.0119 152.9550 175.9638 H 778 ligands_prepared 0.0000
15 H15 220.1664 151.3467 178.5422 H 778 ligands_prepared 0.0000
16 H16 221.7880 151.3155 177.7902 H 778 ligands_prepared 0.0000
17 H17 222.0194 153.9237 178.1696 H 778 ligands_prepared 0.0000
18 H18 216.6260 153.6824 175.3335 H 778 ligands_prepared 0.0000
19 H19 216.5084 152.0635 176.0856 H 778 ligands_prepared 0.0000
20 H20 215.5166 151.9163 173.7398 H 778 ligands_prepared 0.0000
21 H21 217.0314 152.6485 171.7629 H 778 ligands_prepared 0.0000
22 H22 217.6930 153.7907 172.9322 H 778 ligands_prepared 0.0000
23 H23 219.1616 151.2715 172.3125 H 778 ligands_prepared 0.0000
24 H24 219.9870 153.0684 174.0155 H 778 ligands_prepared 0.0000
25 H25 220.0651 151.4056 174.6833 H 778 ligands_prepared 0.0000
26 H26 217.6791 150.2227 174.5152 H 778 ligands_prepared 0.0000
27 H27 217.0537 150.1174 172.9652 H 778 ligands_prepared 0.0000
@<TRIPOS>BOND
      1     1     2    2
      2     2     3    1
      3     2     7   am
      4     3     4    1
      5     3     5    1
      6     3    14    1
      7     4     5    1
      8     4    15    1
      9     4    16    1
     10     5     6    1
     11     5    17    1
     12     8     7    1
     13     7    12    1
     14     8     9    1
     15     8    18    1
     16     8    19    1
     17     9    10    1
     18     9    13    1
     19     9    20    1
     20    10    11    1
     21    10    21    1
     22    10    22    1
     23    11    12    1
     24    11    13    1
     25    11    23    1
     26    12    24    1
     27    12    25    1
     28    13    26    1
     29    13    27    1
@<TRIPOS>MOLECULE
CHEMBL3329539_LIG
27 29 1 0 0
SMALL
USER_CHARGES

@<TRIPOS>ATOM
1 O1 221.1149 152.5595 176.3575 O.2 778 ligands_prepared 0.0000
2 C2 219.9576 152.9211 176.5423 C.2 778 ligands_prepared 0.0000
3 C3 219.5524 153.7239 177.7257 C.3 778 ligands_prepared 0.0000
4 C4 218.5908 153.0993 178.7213 C.3 778 ligands_prepared 0.0000
5 C5 220.0316 153.2849 179.1031 C.3 778 ligands_prepared 0.0000
6 F6 220.3019 154.2808 179.9591 F 778 ligands_prepared 0.0000
7 N7 219.0074 152.5908 175.6127 N.am 778 ligands_prepared 0.0000
8 C8 217.6117 153.0097 175.8822 C.3 778 ligands_prepared 0.0000
9 C9 216.6626 152.5076 174.7906 C.3 778 ligands_prepared 0.0000
10 C10 217.2401 152.8809 173.3947 C.3 778 ligands_prepared 0.0000
11 C11 218.1049 151.5954 173.5247 C.3 778 ligands_prepared 0.0000
12 C12 219.3580 151.9001 174.3539 C.3 778 ligands_prepared 0.0000
13 N13 217.0372 151.0300 174.4984 N.4 778 ligands_prepared 1.0000
14 H14 219.4491 154.7997 177.5013 H 778 ligands_prepared 0.0000
15 H15 217.8028 153.7151 179.1607 H 778 ligands_prepared 0.0000
16 H16 218.2127 152.0895 178.5405 H 778 ligands_prepared 0.0000
17 H17 220.7283 152.4394 179.2303 H 778 ligands_prepared 0.0000
18 H18 217.5539 154.1259 175.9510 H 778 ligands_prepared 0.0000
19 H19 217.3074 152.6240 176.8885 H 778 ligands_prepared 0.0000
20 H20 215.5932 152.6787 174.9948 H 778 ligands_prepared 0.0000
21 H21 216.5094 152.8667 172.5735 H 778 ligands_prepared 0.0000
22 H22 217.7806 153.8313 173.3256 H 778 ligands_prepared 0.0000
23 H23 218.2859 150.9762 172.6300 H 778 ligands_prepared 0.0000
24 H24 220.0533 152.5354 173.7463 H 778 ligands_prepared 0.0000
25 H25 219.9122 150.9574 174.5885 H 778 ligands_prepared 0.0000
26 H26 217.3920 150.4849 175.2962 H 778 ligands_prepared 0.0000
27 H27 216.2895 150.4885 174.0352 H 778 ligands_prepared 0.0000
@<TRIPOS>BOND
      1     1     2    2
      2     2     3    1
      3     2     7   am
      4     3     4    1
      5     3     5    1
      6     3    14    1
      7     4     5    1
      8     4    15    1
      9     4    16    1
     10     5     6    1
     11     5    17    1
     12     8     7    1
     13     7    12    1
     14     8     9    1
     15     8    18    1
     16     8    19    1
     17     9    10    1
     18     9    13    1
     19     9    20    1
     20    10    11    1
     21    10    21    1
     22    10    22    1
     23    11    12    1
     24    11    13    1
     25    11    23    1
     26    12    24    1
     27    12    25    1
     28    13    26    1
     29    13    27    1
@<TRIPOS>MOLECULE
CHEMBL3329540_LIG
27 29 1 0 0
SMALL
USER_CHARGES

@<TRIPOS>ATOM
1 O1 220.9243 152.4994 176.1095 O.2 778 ligands_prepared 0.0000
2 C2 219.7731 152.8798 176.2965 C.2 778 ligands_prepared 0.0000
3 C3 219.3544 153.5951 177.5305 C.3 778 ligands_prepared 0.0000
4 C4 220.4127 153.9989 178.5406 C.3 778 ligands_prepared 0.0000
5 C5 219.4674 152.8765 178.8675 C.3 778 ligands_prepared 0.0000
6 F6 218.4894 153.1438 179.7441 F 778 ligands_prepared 0.0000
7 N7 218.8275 152.6337 175.3349 N.am 778 ligands_prepared 0.0000
8 C8 217.4421 153.0937 175.5801 C.3 778 ligands_prepared 0.0000
9 C9 216.4606 152.4007 174.6272 C.3 778 ligands_prepared 0.0000
10 C10 216.9290 152.6175 173.1598 C.3 778 ligands_prepared 0.0000
11 C11 217.8789 151.4101 173.3964 C.3 778 ligands_prepared 0.0000
12 C12 219.1553 151.8979 174.0960 C.3 778 ligands_prepared 0.0000
13 N13 216.9075 150.9201 174.5012 N.4 778 ligands_prepared 1.0000
14 H14 218.5153 154.2921 177.3517 H 778 ligands_prepared 0.0000
15 H15 220.3323 154.9702 179.0340 H 778 ligands_prepared 0.0000
16 H16 221.4619 153.7734 178.3371 H 778 ligands_prepared 0.0000
17 H17 219.7960 151.8251 178.9321 H 778 ligands_prepared 0.0000
18 H18 217.3818 154.2027 175.4424 H 778 ligands_prepared 0.0000
19 H19 217.1710 152.8984 176.6493 H 778 ligands_prepared 0.0000
20 H20 215.3963 152.5419 174.8785 H 778 ligands_prepared 0.0000
21 H21 216.1548 152.4537 172.3982 H 778 ligands_prepared 0.0000
22 H22 217.4026 153.5779 172.9312 H 778 ligands_prepared 0.0000
23 H23 218.0515 150.6903 172.5787 H 778 ligands_prepared 0.0000
24 H24 219.7308 152.5590 173.3996 H 778 ligands_prepared 0.0000
25 H25 219.8200 151.0291 174.3349 H 778 ligands_prepared 0.0000
26 H26 217.3397 150.5017 175.3363 H 778 ligands_prepared 0.0000
27 H27 216.1684 150.2829 174.1602 H 778 ligands_prepared 0.0000
@<TRIPOS>BOND
      1     1     2    2
      2     2     3    1
      3     2     7   am
      4     3     4    1
      5     3     5    1
      6     3    14    1
      7     4     5    1
      8     4    15    1
      9     4    16    1
     10     5     6    1
     11     5    17    1
     12     8     7    1
     13     7    12    1
     14     8     9    1
     15     8    18    1
     16     8    19    1
     17     9    10    1
     18     9    13    1
     19     9    20    1
     20    10    11    1
     21    10    21    1
     22    10    22    1
     23    11    12    1
     24    11    13    1
     25    11    23    1
     26    12    24    1
     27    12    25    1
     28    13    26    1
     29    13    27    1
@<TRIPOS>MOLECULE
CHEMBL3329541_LIG
30 32 1 0 0
SMALL
USER_CHARGES

@<TRIPOS>ATOM
1 C1 221.5084 152.9353 178.6737 C.3 778 ligands_prepared 0.0000
2 C2 220.2125 153.6931 178.7041 C.3 778 ligands_prepared 0.0000
3 C3 218.9050 152.9436 178.7215 C.3 778 ligands_prepared 0.0000
4 C4 219.3102 153.7060 177.4756 C.3 778 ligands_prepared 0.0000
5 C5 219.6974 152.9408 176.2634 C.2 778 ligands_prepared 0.0000
6 O6 220.8533 152.6019 176.0235 O.2 778 ligands_prepared 0.0000
7 N7 218.7133 152.5579 175.3868 N.am 778 ligands_prepared 0.0000
8 C8 217.3172 153.0126 175.5448 C.3 778 ligands_prepared 0.0000
9 C9 216.4034 152.3649 174.4961 C.3 778 ligands_prepared 0.0000
10 C10 217.0199 152.5509 173.0787 C.3 778 ligands_prepared 0.0000
11 C11 217.8862 151.3025 173.4065 C.3 778 ligands_prepared 0.0000
12 C12 219.1107 151.7380 174.2189 C.3 778 ligands_prepared 0.0000
13 N13 216.7918 150.8656 174.4159 N.4 778 ligands_prepared 1.0000
14 H14 222.3093 153.5214 178.1985 H 778 ligands_prepared 0.0000
15 H15 221.4352 151.9890 178.1169 H 778 ligands_prepared 0.0000
16 H16 221.8487 152.6845 179.6905 H 778 ligands_prepared 0.0000
17 H17 220.2845 154.6339 179.2704 H 778 ligands_prepared 0.0000
18 H18 218.0716 153.3143 179.3163 H 778 ligands_prepared 0.0000
19 H19 218.9046 151.8553 178.7020 H 778 ligands_prepared 0.0000
20 H20 218.7634 154.6329 177.2362 H 778 ligands_prepared 0.0000
21 H21 216.9589 152.7644 176.5756 H 778 ligands_prepared 0.0000
22 H22 217.2595 154.1253 175.4488 H 778 ligands_prepared 0.0000
23 H23 215.3272 152.5558 174.6427 H 778 ligands_prepared 0.0000
24 H24 216.3130 152.4189 172.2473 H 778 ligands_prepared 0.0000
25 H25 217.5563 153.4882 172.8965 H 778 ligands_prepared 0.0000
26 H26 218.0963 150.5693 172.6111 H 778 ligands_prepared 0.0000
27 H27 219.6884 150.8492 174.5830 H 778 ligands_prepared 0.0000
28 H28 219.8113 152.3148 173.5649 H 778 ligands_prepared 0.0000
29 H29 217.1237 150.4352 175.2910 H 778 ligands_prepared 0.0000
30 H30 216.0604 150.2595 174.0090 H 778 ligands_prepared 0.0000
@<TRIPOS>BOND
      1     1     2    1
      2     1    14    1
      3     1    15    1
      4     1    16    1
      5     2     3    1
      6     2     4    1
      7     2    17    1
      8     3     4    1
      9     3    18    1
     10     3    19    1
     11     4     5    1
     12     4    20    1
     13     5     6    2
     14     5     7   am
     15     8     7    1
     16     7    12    1
     17     8     9    1
     18     8    21    1
     19     8    22    1
     20     9    10    1
     21     9    13    1
     22     9    23    1
     23    10    11    1
     24    10    24    1
     25    10    25    1
     26    11    12    1
     27    11    13    1
     28    11    26    1
     29    12    27    1
     30    12    28    1
     31    13    29    1
     32    13    30    1
@<TRIPOS>MOLECULE
CHEMBL3329542_LIG
30 32 1 0 0
SMALL
USER_CHARGES

@<TRIPOS>ATOM
1 C1 220.2894 154.0950 179.3724 C.3 778 ligands_prepared 0.0000
2 C2 221.0835 153.3751 178.3210 C.3 778 ligands_prepared 0.0000
3 C3 220.8868 151.8978 178.0991 C.3 778 ligands_prepared 0.0000
4 C4 220.4146 152.8747 177.0416 C.3 778 ligands_prepared 0.0000
5 C5 218.9536 153.0427 176.8431 C.2 778 ligands_prepared 0.0000
6 O6 218.2002 153.4467 177.7231 O.2 778 ligands_prepared 0.0000
7 N7 218.4099 152.6954 175.6297 N.am 778 ligands_prepared 0.0000
8 C8 216.9528 152.7477 175.3906 C.3 778 ligands_prepared 0.0000
9 C9 216.5704 151.9065 174.1654 C.3 778 ligands_prepared 0.0000
10 C10 217.4039 152.3740 172.9381 C.3 778 ligands_prepared 0.0000
11 C11 218.5317 151.4530 173.4843 C.3 778 ligands_prepared 0.0000
12 C12 219.3171 152.1990 174.5693 C.3 778 ligands_prepared 0.0000
13 N13 217.4362 150.6187 174.2007 N.4 778 ligands_prepared 1.0000
14 H14 219.2865 153.6713 179.5188 H 778 ligands_prepared 0.0000
15 H15 220.1554 155.1571 179.1260 H 778 ligands_prepared 0.0000
16 H16 220.7983 154.0554 180.3478 H 778 ligands_prepared 0.0000
17 H17 222.1005 153.7863 178.2076 H 778 ligands_prepared 0.0000
18 H18 221.7411 151.2576 177.8845 H 778 ligands_prepared 0.0000
19 H19 220.1432 151.3561 178.6854 H 778 ligands_prepared 0.0000
20 H20 220.9825 152.9470 176.0999 H 778 ligands_prepared 0.0000
21 H21 216.6276 153.8075 175.2282 H 778 ligands_prepared 0.0000
22 H22 216.4073 152.3903 176.2994 H 778 ligands_prepared 0.0000
23 H23 215.4887 151.7320 174.0465 H 778 ligands_prepared 0.0000
24 H24 216.9955 152.0770 171.9623 H 778 ligands_prepared 0.0000
25 H25 217.6291 153.4455 172.8773 H 778 ligands_prepared 0.0000
26 H26 219.1534 150.8839 172.7733 H 778 ligands_prepared 0.0000
27 H27 220.0957 151.5386 175.0275 H 778 ligands_prepared 0.0000
28 H28 219.8713 153.0584 174.1127 H 778 ligands_prepared 0.0000
29 H29 217.6753 150.2574 175.1322 H 778 ligands_prepared 0.0000
30 H30 217.0593 149.8395 173.6352 H 778 ligands_prepared 0.0000
@<TRIPOS>BOND
      1     1     2    1
      2     1    14    1
      3     1    15    1
      4     1    16    1
      5     2     3    1
      6     2     4    1
      7     2    17    1
      8     3     4    1
      9     3    18    1
     10     3    19    1
     11     4     5    1
     12     4    20    1
     13     5     6    2
     14     5     7   am
     15     8     7    1
     16     7    12    1
     17     8     9    1
     18     8    21    1
     19     8    22    1
     20     9    10    1
     21     9    13    1
     22     9    23    1
     23    10    11    1
     24    10    24    1
     25    10    25    1
     26    11    12    1
     27    11    13    1
     28    11    26    1
     29    12    27    1
     30    12    28    1
     31    13    29    1
     32    13    30    1
@<TRIPOS>MOLECULE
CHEMBL3329543_LIG
30 32 1 0 0
SMALL
USER_CHARGES

@<TRIPOS>ATOM
1 C1 218.4998 153.1062 179.8293 C.3 778 ligands_prepared 0.0000
2 C2 219.5193 152.8889 178.7489 C.3 778 ligands_prepared 0.0000
3 C3 220.4645 154.0038 178.3708 C.3 778 ligands_prepared 0.0000
4 C4 219.3637 153.6051 177.4111 C.3 778 ligands_prepared 0.0000
5 C5 219.7191 152.8518 176.1801 C.2 778 ligands_prepared 0.0000
6 O6 220.8561 152.4432 175.9624 O.2 778 ligands_prepared 0.0000
7 N7 218.7441 152.5943 175.2499 N.am 778 ligands_prepared 0.0000
8 C8 217.3483 153.0385 175.4368 C.3 778 ligands_prepared 0.0000
9 C9 216.4051 152.2644 174.5022 C.3 778 ligands_prepared 0.0000
10 C10 216.8819 152.4591 173.0334 C.3 778 ligands_prepared 0.0000
11 C11 217.8816 151.3015 173.3160 C.3 778 ligands_prepared 0.0000
12 C12 219.1245 151.8771 174.0091 C.3 778 ligands_prepared 0.0000
13 N13 216.9207 150.8020 174.4270 N.4 778 ligands_prepared 1.0000
14 H14 217.6417 152.4285 179.7127 H 778 ligands_prepared 0.0000
15 H15 218.1040 154.1292 179.8381 H 778 ligands_prepared 0.0000
16 H16 218.9356 152.9202 180.8218 H 778 ligands_prepared 0.0000
17 H17 219.9017 151.8564 178.7184 H 778 ligands_prepared 0.0000
18 H18 220.4034 154.9674 178.8747 H 778 ligands_prepared 0.0000
19 H19 221.5005 153.7814 178.1250 H 778 ligands_prepared 0.0000
20 H20 218.5089 154.2807 177.2653 H 778 ligands_prepared 0.0000
21 H21 217.0454 152.9005 176.5040 H 778 ligands_prepared 0.0000
22 H22 217.2581 154.1335 175.2226 H 778 ligands_prepared 0.0000
23 H23 215.3349 152.3609 174.7402 H 778 ligands_prepared 0.0000
24 H24 217.3188 153.4340 172.7902 H 778 ligands_prepared 0.0000
25 H25 216.1269 152.2467 172.2659 H 778 ligands_prepared 0.0000
26 H26 218.0913 150.5649 172.5249 H 778 ligands_prepared 0.0000
27 H27 219.6509 152.5761 173.3129 H 778 ligands_prepared 0.0000
28 H28 219.8599 151.0721 174.2588 H 778 ligands_prepared 0.0000
29 H29 217.3640 150.4327 175.2802 H 778 ligands_prepared 0.0000
30 H30 216.2159 150.1221 174.1004 H 778 ligands_prepared 0.0000
@<TRIPOS>BOND
      1     1     2    1
      2     1    14    1
      3     1    15    1
      4     1    16    1
      5     2     3    1
      6     2     4    1
      7     2    17    1
      8     3     4    1
      9     3    18    1
     10     3    19    1
     11     4     5    1
     12     4    20    1
     13     5     6    2
     14     5     7   am
     15     8     7    1
     16     7    12    1
     17     8     9    1
     18     8    21    1
     19     8    22    1
     20     9    10    1
     21     9    13    1
     22     9    23    1
     23    10    11    1
     24    10    24    1
     25    10    25    1
     26    11    12    1
     27    11    13    1
     28    11    26    1
     29    12    27    1
     30    12    28    1
     31    13    29    1
     32    13    30    1
@<TRIPOS>MOLECULE
CHEMBL3329544_LIG
30 32 1 0 0
SMALL
USER_CHARGES

@<TRIPOS>ATOM
1 C1 220.3388 154.0317 179.8000 C.3 778 ligands_prepared 0.0000
2 C2 219.8316 153.0939 178.7426 C.3 778 ligands_prepared 0.0000
3 C3 218.3737 153.1009 178.3568 C.3 778 ligands_prepared 0.0000
4 C4 219.4006 153.6639 177.3966 C.3 778 ligands_prepared 0.0000
5 C5 219.7532 152.9023 176.1717 C.2 778 ligands_prepared 0.0000
6 O6 220.8940 152.5124 175.9383 O.2 778 ligands_prepared 0.0000
7 N7 218.7732 152.6441 175.2466 N.am 778 ligands_prepared 0.0000
8 C8 217.3710 153.0519 175.4696 C.3 778 ligands_prepared 0.0000
9 C9 216.4261 152.2882 174.5294 C.3 778 ligands_prepared 0.0000
10 C10 216.8906 152.4918 173.0599 C.3 778 ligands_prepared 0.0000
11 C11 217.8967 151.3365 173.3277 C.3 778 ligands_prepared 0.0000
12 C12 219.1424 151.9014 174.0199 C.3 778 ligands_prepared 0.0000
13 N13 216.9414 150.8283 174.4405 N.4 778 ligands_prepared 1.0000
14 H14 220.1936 153.6092 180.8055 H 778 ligands_prepared 0.0000
15 H15 219.8279 155.0038 179.7823 H 778 ligands_prepared 0.0000
16 H16 221.4140 154.2283 179.6758 H 778 ligands_prepared 0.0000
17 H17 220.3582 152.1269 178.7331 H 778 ligands_prepared 0.0000
18 H18 217.6774 153.7850 178.8446 H 778 ligands_prepared 0.0000
19 H19 217.8658 152.1669 178.1243 H 778 ligands_prepared 0.0000
20 H20 219.4383 154.7547 177.2455 H 778 ligands_prepared 0.0000
21 H21 217.0900 152.8725 176.5375 H 778 ligands_prepared 0.0000
22 H22 217.2566 154.1521 175.2950 H 778 ligands_prepared 0.0000
23 H23 215.3558 152.3862 174.7759 H 778 ligands_prepared 0.0000
24 H24 217.3189 153.4693 172.8113 H 778 ligands_prepared 0.0000
25 H25 216.1274 152.2749 172.2988 H 778 ligands_prepared 0.0000
26 H26 218.1016 150.6056 172.5280 H 778 ligands_prepared 0.0000
27 H27 219.8603 151.0834 174.2852 H 778 ligands_prepared 0.0000
28 H28 219.6905 152.5781 173.3173 H 778 ligands_prepared 0.0000
29 H29 217.3892 150.4517 175.2875 H 778 ligands_prepared 0.0000
30 H30 216.2335 150.1498 174.1133 H 778 ligands_prepared 0.0000
@<TRIPOS>BOND
      1     1     2    1
      2     1    14    1
      3     1    15    1
      4     1    16    1
      5     2     3    1
      6     2     4    1
      7     2    17    1
      8     3     4    1
      9     3    18    1
     10     3    19    1
     11     4     5    1
     12     4    20    1
     13     5     6    2
     14     5     7   am
     15     8     7    1
     16     7    12    1
     17     8     9    1
     18     8    21    1
     19     8    22    1
     20     9    10    1
     21     9    13    1
     22     9    23    1
     23    10    11    1
     24    10    24    1
     25    10    25    1
     26    11    12    1
     27    11    13    1
     28    11    26    1
     29    12    27    1
     30    12    28    1
     31    13    29    1
     32    13    30    1
@<TRIPOS>MOLECULE
CHEMBL388341_LIG
49 52 1 0 0
SMALL
USER_CHARGES

@<TRIPOS>ATOM
1 C1 229.0718 162.8023 177.1074 C.3 778 ligands_prepared 0.0000
2 O2 228.0093 162.5141 176.2037 O.3 778 ligands_prepared 0.0000
3 C3 227.3949 161.3056 176.3567 C.ar 778 ligands_prepared 0.0000
4 C4 227.7509 160.3294 177.2763 C.ar 778 ligands_prepared 0.0000
5 C5 227.0613 159.1134 177.3096 C.ar 778 ligands_prepared 0.0000
6 C6 226.0533 158.8695 176.3581 C.ar 778 ligands_prepared 0.0000
7 C7 225.6802 159.8484 175.4391 C.ar 778 ligands_prepared 0.0000
8 C8 226.3444 161.0712 175.4473 C.ar 778 ligands_prepared 0.0000
9 O9 225.9404 161.9872 174.5354 O.3 778 ligands_prepared 0.0000
10 C10 225.3974 157.5224 176.3005 C.3 778 ligands_prepared 0.0000
11 C11 226.4919 156.4917 176.6340 C.3 778 ligands_prepared 0.0000
12 C12 226.9110 156.7615 178.0574 C.ar 778 ligands_prepared 0.0000
13 C13 226.8757 155.8006 179.0630 C.ar 778 ligands_prepared 0.0000
14 C14 227.3430 156.0974 180.3461 C.ar 778 ligands_prepared 0.0000
15 C15 227.8091 157.3794 180.6018 C.ar 778 ligands_prepared 0.0000
16 O16 228.2374 157.6276 181.8604 O.3 778 ligands_prepared 0.0000
17 C17 227.8041 158.3737 179.6021 C.ar 778 ligands_prepared 0.0000
18 O18 228.1682 159.6455 179.9663 O.3 778 ligands_prepared 0.0000
19 C19 227.2228 160.2655 180.8461 C.3 778 ligands_prepared 0.0000
20 C20 227.3104 158.0915 178.3304 C.ar 778 ligands_prepared 0.0000
21 C21 226.2880 154.4528 178.8135 C.3 778 ligands_prepared 0.0000
22 C22 226.5611 154.1554 177.5274 C.3 778 ligands_prepared 0.0000
23 N23 226.0979 155.0369 176.3873 N.4 778 ligands_prepared 1.0000
24 C24 224.6124 154.8831 176.2365 C.3 778 ligands_prepared 0.0000
25 C25 226.7353 154.5911 175.0962 C.3 778 ligands_prepared 0.0000
26 H26 229.2658 163.8666 176.9080 H 778 ligands_prepared 0.0000
27 H27 228.7665 162.6561 178.1483 H 778 ligands_prepared 0.0000
28 H28 229.9551 162.2022 176.8634 H 778 ligands_prepared 0.0000
29 H29 228.5756 160.5121 177.9647 H 778 ligands_prepared 0.0000
30 H30 224.8872 159.6661 174.7115 H 778 ligands_prepared 0.0000
31 H31 226.5841 162.0557 173.7706 H 778 ligands_prepared 0.0000
32 H32 224.5489 157.4660 177.0191 H 778 ligands_prepared 0.0000
33 H33 224.9466 157.3529 175.2998 H 778 ligands_prepared 0.0000
34 H34 227.3779 156.6912 175.9505 H 778 ligands_prepared 0.0000
35 H35 227.3285 155.3467 181.1379 H 778 ligands_prepared 0.0000
36 H36 227.6352 157.2083 182.5466 H 778 ligands_prepared 0.0000
37 H37 227.0770 159.6719 181.7549 H 778 ligands_prepared 0.0000
38 H38 226.2620 160.4236 180.3465 H 778 ligands_prepared 0.0000
39 H39 227.7065 161.2255 181.0764 H 778 ligands_prepared 0.0000
40 H40 225.1994 154.4407 179.0750 H 778 ligands_prepared 0.0000
41 H41 226.7269 153.6969 179.5059 H 778 ligands_prepared 0.0000
42 H42 227.6728 154.0542 177.4918 H 778 ligands_prepared 0.0000
43 H43 226.1487 153.1283 177.3775 H 778 ligands_prepared 0.0000
44 H44 224.3539 153.8605 175.8962 H 778 ligands_prepared 0.0000
45 H45 224.2085 155.5881 175.4854 H 778 ligands_prepared 0.0000
46 H46 224.0817 155.0440 177.1940 H 778 ligands_prepared 0.0000
47 H47 226.6069 153.5042 174.9431 H 778 ligands_prepared 0.0000
48 H48 226.2787 155.1066 174.2301 H 778 ligands_prepared 0.0000
49 H49 227.8185 154.8116 175.0793 H 778 ligands_prepared 0.0000
@<TRIPOS>BOND
      1     1     2    1
      2     1    26    1
      3     1    27    1
      4     1    28    1
      5     2     3    1
      6     3     4   ar
      7     3     8   ar
      8     4     5   ar
      9     4    29    1
     10     5     6   ar
     11     5    20    1
     12     6     7   ar
     13     6    10    1
     14     7     8   ar
     15     7    30    1
     16     8     9    1
     17     9    31    1
     18    10    11    1
     19    10    32    1
     20    10    33    1
     21    11    12    1
     22    11    23    1
     23    11    34    1
     24    12    13   ar
     25    12    20   ar
     26    13    14   ar
     27    13    21    1
     28    14    15   ar
     29    14    35    1
     30    15    16    1
     31    15    17   ar
     32    16    36    1
     33    17    18    1
     34    17    20   ar
     35    18    19    1
     36    19    37    1
     37    19    38    1
     38    19    39    1
     39    21    22    1
     40    21    40    1
     41    21    41    1
     42    22    23    1
     43    22    42    1
     44    22    43    1
     45    23    24    1
     46    23    25    1
     47    24    44    1
     48    24    45    1
     49    24    46    1
     50    25    47    1
     51    25    48    1
     52    25    49    1
@<TRIPOS>MOLECULE
CHEMBL388342_ncw_LIG
46 49 1 0 0
SMALL
USER_CHARGES

@<TRIPOS>ATOM
1 C1 228.7638 162.6328 177.2279 C.3 778 ligands_prepared 0.0000
2 O2 227.7862 162.3548 176.2290 O.3 778 ligands_prepared 0.0000
3 C3 227.1825 161.1335 176.2968 C.ar 778 ligands_prepared 0.0000
4 C4 227.4824 160.1361 177.2118 C.ar 778 ligands_prepared 0.0000
5 C5 226.8114 158.9088 177.1583 C.ar 778 ligands_prepared 0.0000
6 C6 225.8903 158.6782 176.1220 C.ar 778 ligands_prepared 0.0000
7 C7 225.5780 159.6757 175.2001 C.ar 778 ligands_prepared 0.0000
8 C8 226.2138 160.9087 175.2976 C.ar 778 ligands_prepared 0.0000
9 O9 225.8726 161.8444 174.3814 O.3 778 ligands_prepared 0.0000
10 C10 225.2551 157.3319 175.9952 C.3 778 ligands_prepared 0.0000
11 C11 226.3067 156.2735 176.3679 C.3 778 ligands_prepared 0.0000
12 C12 226.7539 156.5130 177.7863 C.ar 778 ligands_prepared 0.0000
13 C13 226.8981 155.4738 178.7031 C.ar 778 ligands_prepared 0.0000
14 C14 227.2688 155.7392 180.0231 C.ar 778 ligands_prepared 0.0000
15 C15 227.5005 157.0561 180.3972 C.ar 778 ligands_prepared 0.0000
16 O16 227.8033 157.2652 181.6988 O.3 778 ligands_prepared 0.0000
17 C17 227.4215 158.1067 179.4611 C.ar 778 ligands_prepared 0.0000
18 O18 227.6017 159.3904 179.9075 O.3 778 ligands_prepared 0.0000
19 C19 228.9481 159.6683 180.3089 C.3 778 ligands_prepared 0.0000
20 C20 227.0269 157.8505 178.1480 C.ar 778 ligands_prepared 0.0000
21 C21 226.6155 154.0587 178.3228 C.3 778 ligands_prepared 0.0000
22 C22 226.6305 153.8595 176.8124 C.3 778 ligands_prepared 0.0000
23 N23 225.7135 154.8822 176.1776 N.4 778 ligands_prepared 1.0000
24 C24 224.3560 154.8300 176.8130 C.3 778 ligands_prepared 0.0000
25 H25 229.6758 162.0562 177.0424 H 778 ligands_prepared 0.0000
26 H26 228.3754 162.4460 178.2345 H 778 ligands_prepared 0.0000
27 H27 228.9489 163.7077 177.0784 H 778 ligands_prepared 0.0000
28 H28 228.2502 160.3080 177.9654 H 778 ligands_prepared 0.0000
29 H29 224.8514 159.4990 174.4056 H 778 ligands_prepared 0.0000
30 H30 226.3510 161.7051 173.5123 H 778 ligands_prepared 0.0000
31 H31 224.8602 157.1673 174.9676 H 778 ligands_prepared 0.0000
32 H32 224.3601 157.2640 176.6589 H 778 ligands_prepared 0.0000
33 H33 227.2025 156.3593 175.6833 H 778 ligands_prepared 0.0000
34 H34 227.3604 154.9350 180.7542 H 778 ligands_prepared 0.0000
35 H35 228.3815 156.5320 182.0695 H 778 ligands_prepared 0.0000
36 H36 228.9198 160.7506 180.5015 H 778 ligands_prepared 0.0000
37 H37 229.6634 159.4319 179.5130 H 778 ligands_prepared 0.0000
38 H38 229.2090 159.1209 181.2181 H 778 ligands_prepared 0.0000
39 H39 225.6357 153.7417 178.7579 H 778 ligands_prepared 0.0000
40 H40 227.3501 153.3608 178.7925 H 778 ligands_prepared 0.0000
41 H41 227.6584 153.9652 176.3937 H 778 ligands_prepared 0.0000
42 H42 226.2878 152.8322 176.5422 H 778 ligands_prepared 0.0000
43 H43 225.6267 154.6800 175.1441 H 778 ligands_prepared 0.0000
44 H44 224.4034 155.0146 177.9016 H 778 ligands_prepared 0.0000
45 H45 223.6875 155.5933 176.3684 H 778 ligands_prepared 0.0000
46 H46 223.8743 153.8484 176.6493 H 778 ligands_prepared 0.0000
@<TRIPOS>BOND
      1     1     2    1
      2     1    25    1
      3     1    26    1
      4     1    27    1
      5     2     3    1
      6     3     4   ar
      7     3     8   ar
      8     4     5   ar
      9     4    28    1
     10     5     6   ar
     11     5    20    1
     12     6     7   ar
     13     6    10    1
     14     7     8   ar
     15     7    29    1
     16     8     9    1
     17     9    30    1
     18    10    11    1
     19    10    31    1
     20    10    32    1
     21    11    12    1
     22    11    23    1
     23    11    33    1
     24    12    13   ar
     25    12    20   ar
     26    13    14   ar
     27    13    21    1
     28    14    15   ar
     29    14    34    1
     30    15    16    1
     31    15    17   ar
     32    16    35    1
     33    17    18    1
     34    17    20   ar
     35    18    19    1
     36    19    36    1
     37    19    37    1
     38    19    38    1
     39    21    22    1
     40    21    39    1
     41    21    40    1
     42    22    23    1
     43    22    41    1
     44    22    42    1
     45    23    24    1
     46    23    43    1
     47    24    44    1
     48    24    45    1
     49    24    46    1
@<TRIPOS>MOLECULE
CHEMBL388564_ncw_LIG
46 49 1 0 0
SMALL
USER_CHARGES

@<TRIPOS>ATOM
1 C1 224.5506 160.7791 172.8408 C.3 778 ligands_prepared 0.0000
2 O2 225.4000 161.5751 173.6637 O.3 778 ligands_prepared 0.0000
3 C3 226.0633 160.9222 174.6571 C.ar 778 ligands_prepared 0.0000
4 C4 225.9549 159.5738 174.9574 C.ar 778 ligands_prepared 0.0000
5 C5 226.6762 159.0314 176.0260 C.ar 778 ligands_prepared 0.0000
6 C6 227.4409 159.8714 176.8566 C.ar 778 ligands_prepared 0.0000
7 C7 227.5657 161.2206 176.5314 C.ar 778 ligands_prepared 0.0000
8 Br8 228.6497 162.4093 177.5239 Br 778 ligands_prepared 0.0000
9 C9 226.8929 161.7553 175.4359 C.ar 778 ligands_prepared 0.0000
10 O10 227.0577 163.0722 175.1880 O.3 778 ligands_prepared 0.0000
11 C11 228.0653 159.2718 178.0737 C.3 778 ligands_prepared 0.0000
12 C12 227.0796 158.2374 178.6536 C.3 778 ligands_prepared 0.0000
13 C13 226.8714 157.1522 177.6299 C.ar 778 ligands_prepared 0.0000
14 C14 226.8886 155.7963 177.9596 C.ar 778 ligands_prepared 0.0000
15 C15 226.7883 154.8538 176.9337 C.ar 778 ligands_prepared 0.0000
16 Br16 226.8799 152.9965 177.2572 Br 778 ligands_prepared 0.0000
17 C17 226.6437 155.2633 175.6127 C.ar 778 ligands_prepared 0.0000
18 O18 226.6098 154.2983 174.6730 O.3 778 ligands_prepared 0.0000
19 C19 226.5379 156.6335 175.3013 C.ar 778 ligands_prepared 0.0000
20 O20 226.4574 157.0058 173.9866 O.3 778 ligands_prepared 0.0000
21 C21 227.6725 157.5653 173.4739 C.3 778 ligands_prepared 0.0000
22 C22 226.6664 157.5927 176.3053 C.ar 778 ligands_prepared 0.0000
23 C23 227.0571 155.3604 179.3767 C.3 778 ligands_prepared 0.0000
24 C24 226.8052 156.4896 180.3685 C.3 778 ligands_prepared 0.0000
25 N25 227.6282 157.6924 179.9642 N.4 778 ligands_prepared 1.0000
26 C26 227.5518 158.7333 181.0403 C.3 778 ligands_prepared 0.0000
27 H27 224.2836 161.4818 172.0378 H 778 ligands_prepared 0.0000
28 H28 225.0829 159.9131 172.4314 H 778 ligands_prepared 0.0000
29 H29 223.6580 160.4721 173.3970 H 778 ligands_prepared 0.0000
30 H30 225.2927 158.9364 174.3678 H 778 ligands_prepared 0.0000
31 H31 226.3632 163.6239 175.6623 H 778 ligands_prepared 0.0000
32 H32 229.0412 158.7948 177.8090 H 778 ligands_prepared 0.0000
33 H33 228.3195 160.0328 178.8407 H 778 ligands_prepared 0.0000
34 H34 226.0863 158.7335 178.8754 H 778 ligands_prepared 0.0000
35 H35 227.2887 153.5747 174.8592 H 778 ligands_prepared 0.0000
36 H36 227.4771 157.5991 172.3913 H 778 ligands_prepared 0.0000
37 H37 227.8325 158.5740 173.8676 H 778 ligands_prepared 0.0000
38 H38 228.5386 156.9333 173.6946 H 778 ligands_prepared 0.0000
39 H39 228.0787 154.9287 179.5228 H 778 ligands_prepared 0.0000
40 H40 226.3652 154.5182 179.6306 H 778 ligands_prepared 0.0000
41 H41 227.0864 156.1760 181.4028 H 778 ligands_prepared 0.0000
42 H42 225.7249 156.7680 180.4111 H 778 ligands_prepared 0.0000
43 H43 228.6349 157.3978 179.8282 H 778 ligands_prepared 0.0000
44 H44 228.2093 159.5933 180.8135 H 778 ligands_prepared 0.0000
45 H45 226.5214 159.1106 181.1761 H 778 ligands_prepared 0.0000
46 H46 227.8914 158.3163 182.0091 H 778 ligands_prepared 0.0000
@<TRIPOS>BOND
      1     1     2    1
      2     1    27    1
      3     1    28    1
      4     1    29    1
      5     2     3    1
      6     3     4   ar
      7     3     9   ar
      8     4     5   ar
      9     4    30    1
     10     5     6   ar
     11     5    22    1
     12     6     7   ar
     13     6    11    1
     14     7     8    1
     15     7     9   ar
     16     9    10    1
     17    10    31    1
     18    11    12    1
     19    11    32    1
     20    11    33    1
     21    12    13    1
     22    12    25    1
     23    12    34    1
     24    13    14   ar
     25    13    22   ar
     26    14    15   ar
     27    14    23    1
     28    15    16    1
     29    15    17   ar
     30    17    18    1
     31    17    19   ar
     32    18    35    1
     33    19    20    1
     34    19    22   ar
     35    20    21    1
     36    21    36    1
     37    21    37    1
     38    21    38    1
     39    23    24    1
     40    23    39    1
     41    23    40    1
     42    24    25    1
     43    24    41    1
     44    24    42    1
     45    25    26    1
     46    25    43    1
     47    26    44    1
     48    26    45    1
     49    26    46    1
@<TRIPOS>MOLECULE
CHEMBL3_ncw_LIG
27 28 1 0 0
SMALL
USER_CHARGES

@<TRIPOS>ATOM
1 C1 219.3759 151.8975 173.6576 C.3 778 ligands_prepared 0.0000
2 N2 218.4296 151.9220 174.8134 N.4 778 ligands_prepared 1.0000
3 C3 216.8790 151.7333 174.2111 C.3 778 ligands_prepared 0.0000
4 C4 216.3971 153.1838 174.3044 C.3 778 ligands_prepared 0.0000
5 C5 216.9590 153.6567 175.6515 C.3 778 ligands_prepared 0.0000
6 C6 218.4476 153.2877 175.5371 C.3 778 ligands_prepared 0.0000
7 C7 219.1870 153.1835 176.8301 C.ar 778 ligands_prepared 0.0000
8 C8 220.5304 152.8103 176.9151 C.ar 778 ligands_prepared 0.0000
9 C9 221.1430 152.7414 178.1635 C.ar 778 ligands_prepared 0.0000
10 C10 220.3893 153.0455 179.3029 C.ar 778 ligands_prepared 0.0000
11 N11 219.0877 153.3918 179.2321 N.ar 778 ligands_prepared 0.0000
12 C12 218.4992 153.4589 178.0252 C.ar 778 ligands_prepared 0.0000
13 H13 220.4124 152.0766 173.9992 H 778 ligands_prepared 0.0000
14 H14 219.3543 150.9009 173.1698 H 778 ligands_prepared 0.0000
15 H15 219.1262 152.6526 172.8894 H 778 ligands_prepared 0.0000
16 H16 218.7045 151.1685 175.4943 H 778 ligands_prepared 0.0000
17 H17 216.8238 151.3246 173.1819 H 778 ligands_prepared 0.0000
18 H18 216.2756 151.0577 174.8598 H 778 ligands_prepared 0.0000
19 H19 215.2976 153.2659 174.2454 H 778 ligands_prepared 0.0000
20 H20 216.7920 153.7971 173.4679 H 778 ligands_prepared 0.0000
21 H21 216.4598 153.1381 176.4941 H 778 ligands_prepared 0.0000
22 H22 216.8065 154.7359 175.8242 H 778 ligands_prepared 0.0000
23 H23 218.9483 154.0352 174.8538 H 778 ligands_prepared 0.0000
24 H24 221.1059 152.5695 176.0150 H 778 ligands_prepared 0.0000
25 H25 222.1923 152.4548 178.2583 H 778 ligands_prepared 0.0000
26 H26 220.8281 153.0111 180.3119 H 778 ligands_prepared 0.0000
27 H27 217.4330 153.7379 178.0264 H 778 ligands_prepared 0.0000
@<TRIPOS>BOND
      1     1     2    1
      2     1    13    1
      3     1    14    1
      4     1    15    1
      5     2     3    1
      6     2     6    1
      7     2    16    1
      8     3     4    1
      9     3    17    1
     10     3    18    1
     11     4     5    1
     12     4    19    1
     13     4    20    1
     14     5     6    1
     15     5    21    1
     16     5    22    1
     17     6     7    1
     18     6    23    1
     19     7     8   ar
     20     7    12   ar
     21     8     9   ar
     22     8    24    1
     23     9    10   ar
     24     9    25    1
     25    10    11   ar
     26    10    26    1
     27    11    12   ar
     28    12    27    1
@<TRIPOS>MOLECULE
CHEMBL442947_ncw_LIG
47 50 1 0 0
SMALL
USER_CHARGES

@<TRIPOS>ATOM
1 C1 227.4856 160.3874 181.1021 C.3 778 ligands_prepared 0.0000
2 O2 228.1452 159.1612 180.8047 O.3 778 ligands_prepared 0.0000
3 C3 227.7458 158.4611 179.7149 C.ar 778 ligands_prepared 0.0000
4 C4 227.2489 159.2675 178.6960 C.ar 778 ligands_prepared 0.0000
5 C5 226.7521 158.7020 177.5167 C.ar 778 ligands_prepared 0.0000
6 C6 226.7218 157.3180 177.3654 C.ar 778 ligands_prepared 0.0000
7 C7 227.2573 156.5069 178.3752 C.ar 778 ligands_prepared 0.0000
8 C8 227.7662 157.0580 179.5410 C.ar 778 ligands_prepared 0.0000
9 O9 228.3032 156.3453 180.5663 O.3 778 ligands_prepared 0.0000
10 C10 227.7988 155.0303 180.7778 C.3 778 ligands_prepared 0.0000
11 C11 226.1435 156.6379 176.1490 C.3 778 ligands_prepared 0.0000
12 C12 224.8042 155.9612 176.4349 C.3 778 ligands_prepared 0.0000
13 C13 224.9962 154.6356 177.1981 C.3 778 ligands_prepared 0.0000
14 O14 223.7811 153.9386 176.9473 O.3 778 ligands_prepared 0.0000
15 C15 223.7396 152.6358 177.5005 C.3 778 ligands_prepared 0.0000
16 C16 226.1430 153.7991 176.7065 C.2 778 ligands_prepared 0.0000
17 C17 227.1581 154.2933 175.9842 C.2 778 ligands_prepared 0.0000
18 C18 227.1572 155.6658 175.5416 C.2 778 ligands_prepared 0.0000
19 C19 227.8538 156.2544 174.5553 C.2 778 ligands_prepared 0.0000
20 C20 227.3400 157.6392 174.2830 C.3 778 ligands_prepared 0.0000
21 N21 225.9672 157.6293 174.9650 N.4 778 ligands_prepared 1.0000
22 C22 225.4576 158.9775 175.3786 C.3 778 ligands_prepared 0.0000
23 C23 226.3323 159.6374 176.4333 C.3 778 ligands_prepared 0.0000
24 H24 226.4021 160.2482 181.1824 H 778 ligands_prepared 0.0000
25 H25 227.7318 161.1479 180.3535 H 778 ligands_prepared 0.0000
26 H26 227.9157 160.6497 182.0795 H 778 ligands_prepared 0.0000
27 H27 227.2576 160.3541 178.8213 H 778 ligands_prepared 0.0000
28 H28 227.2930 155.4253 178.2325 H 778 ligands_prepared 0.0000
29 H29 226.7418 155.0551 181.0618 H 778 ligands_prepared 0.0000
30 H30 227.9614 154.3945 179.9014 H 778 ligands_prepared 0.0000
31 H31 228.4140 154.6828 181.6214 H 778 ligands_prepared 0.0000
32 H32 224.1336 156.6324 177.0132 H 778 ligands_prepared 0.0000
33 H33 224.2528 155.7446 175.4905 H 778 ligands_prepared 0.0000
34 H34 225.1052 154.8336 178.2950 H 778 ligands_prepared 0.0000
35 H35 223.7930 152.6777 178.5940 H 778 ligands_prepared 0.0000
36 H36 222.7589 152.2583 177.1795 H 778 ligands_prepared 0.0000
37 H37 224.5401 152.0064 177.0976 H 778 ligands_prepared 0.0000
38 H38 226.0948 152.7458 176.9965 H 778 ligands_prepared 0.0000
39 H39 228.0030 153.6743 175.6667 H 778 ligands_prepared 0.0000
40 H40 228.6599 155.8432 173.9655 H 778 ligands_prepared 0.0000
41 H41 227.2272 157.8703 173.1999 H 778 ligands_prepared 0.0000
42 H42 227.9945 158.4290 174.7191 H 778 ligands_prepared 0.0000
43 H43 225.2703 157.2056 174.2863 H 778 ligands_prepared 0.0000
44 H44 225.3764 159.6235 174.4679 H 778 ligands_prepared 0.0000
45 H45 224.4114 158.8493 175.7573 H 778 ligands_prepared 0.0000
46 H46 225.7819 160.5162 176.8549 H 778 ligands_prepared 0.0000
47 H47 227.2394 160.0958 175.9688 H 778 ligands_prepared 0.0000
@<TRIPOS>BOND
      1     1     2    1
      2     1    24    1
      3     1    25    1
      4     1    26    1
      5     2     3    1
      6     3     4   ar
      7     3     8   ar
      8     4     5   ar
      9     4    27    1
     10     5     6   ar
     11     5    23    1
     12     6     7   ar
     13     6    11    1
     14     7     8   ar
     15     7    28    1
     16     8     9    1
     17     9    10    1
     18    10    29    1
     19    10    30    1
     20    10    31    1
     21    11    12    1
     22    11    18    1
     23    11    21    1
     24    12    13    1
     25    12    32    1
     26    12    33    1
     27    13    14    1
     28    13    16    1
     29    13    34    1
     30    14    15    1
     31    15    35    1
     32    15    36    1
     33    15    37    1
     34    16    17    2
     35    16    38    1
     36    17    18    1
     37    17    39    1
     38    18    19    2
     39    19    20    1
     40    19    40    1
     41    20    21    1
     42    20    41    1
     43    20    42    1
     44    21    22    1
     45    21    43    1
     46    22    23    1
     47    22    44    1
     48    22    45    1
     49    23    46    1
     50    23    47    1
@<TRIPOS>MOLECULE
CHEMBL446533_nacw_LIG
44 47 1 0 0
SMALL
USER_CHARGES

@<TRIPOS>ATOM
1 C1 228.0544 155.6824 180.9736 C.3 778 ligands_prepared 0.0000
2 O2 228.1815 157.0267 180.5228 O.3 778 ligands_prepared 0.0000
3 C3 227.5870 157.3357 179.3385 C.ar 778 ligands_prepared 0.0000
4 C4 227.3910 156.4687 178.2758 C.ar 778 ligands_prepared 0.0000
5 C5 226.7831 156.9371 177.1067 C.ar 778 ligands_prepared 0.0000
6 C6 226.4023 158.2774 177.0024 C.ar 778 ligands_prepared 0.0000
7 C7 226.5859 159.1571 178.0704 C.ar 778 ligands_prepared 0.0000
8 C8 227.1717 158.6836 179.2377 C.ar 778 ligands_prepared 0.0000
9 O9 227.3297 159.5773 180.2434 O.3 778 ligands_prepared 0.0000
10 C10 225.8537 158.7445 175.6971 C.3 778 ligands_prepared 0.0000
11 C11 226.7485 158.2003 174.5841 C.3 778 ligands_prepared 0.0000
12 N12 226.7902 156.6886 174.5908 N.4 778 ligands_prepared 1.0000
13 C13 228.1733 156.1629 174.1882 C.3 778 ligands_prepared 0.0000
14 C14 228.3273 154.8918 174.9636 C.2 778 ligands_prepared 0.0000
15 C15 227.3884 154.7809 175.9147 C.2 778 ligands_prepared 0.0000
16 C16 227.0634 153.6508 176.7559 C.2 778 ligands_prepared 0.0000
17 C17 225.8544 153.5422 177.3224 C.2 778 ligands_prepared 0.0000
18 C18 224.8015 154.6083 177.2009 C.3 778 ligands_prepared 0.0000
19 O19 223.5494 154.0010 176.9136 O.3 778 ligands_prepared 0.0000
20 C20 223.1817 152.9698 177.8127 C.3 778 ligands_prepared 0.0000
21 C21 225.0199 155.5503 175.9984 C.3 778 ligands_prepared 0.0000
22 C22 226.4837 156.0063 175.9657 C.3 778 ligands_prepared 0.0000
23 H23 228.5578 155.7186 181.9515 H 778 ligands_prepared 0.0000
24 H24 228.5745 154.9942 180.2988 H 778 ligands_prepared 0.0000
25 H25 227.0023 155.4012 181.0908 H 778 ligands_prepared 0.0000
26 H26 227.7109 155.4272 178.3466 H 778 ligands_prepared 0.0000
27 H27 226.2823 160.2031 177.9933 H 778 ligands_prepared 0.0000
28 H28 228.0368 159.2890 180.8909 H 778 ligands_prepared 0.0000
29 H29 224.7937 158.4296 175.5677 H 778 ligands_prepared 0.0000
30 H30 225.8132 159.8563 175.6277 H 778 ligands_prepared 0.0000
31 H31 227.7817 158.6107 174.6930 H 778 ligands_prepared 0.0000
32 H32 226.3861 158.5326 173.5801 H 778 ligands_prepared 0.0000
33 H33 226.0798 156.3297 173.8985 H 778 ligands_prepared 0.0000
34 H34 228.9711 156.9025 174.4392 H 778 ligands_prepared 0.0000
35 H35 228.2128 156.0136 173.0834 H 778 ligands_prepared 0.0000
36 H36 229.1099 154.1900 174.7099 H 778 ligands_prepared 0.0000
37 H37 227.8358 152.8854 176.8728 H 778 ligands_prepared 0.0000
38 H38 225.5650 152.6757 177.9192 H 778 ligands_prepared 0.0000
39 H39 224.7412 155.1968 178.1514 H 778 ligands_prepared 0.0000
40 H40 223.9189 152.1615 177.8148 H 778 ligands_prepared 0.0000
41 H41 222.2256 152.6143 177.4059 H 778 ligands_prepared 0.0000
42 H42 223.0419 153.3692 178.8236 H 778 ligands_prepared 0.0000
43 H43 224.7417 155.0135 175.0646 H 778 ligands_prepared 0.0000
44 H44 224.3202 156.4081 176.0638 H 778 ligands_prepared 0.0000
@<TRIPOS>BOND
      1     1     2    1
      2     1    23    1
      3     1    24    1
      4     1    25    1
      5     2     3    1
      6     3     4   ar
      7     3     8   ar
      8     4     5   ar
      9     4    26    1
     10     5     6   ar
     11     5    22    1
     12     6     7   ar
     13     6    10    1
     14     7     8   ar
     15     7    27    1
     16     8     9    1
     17     9    28    1
     18    10    11    1
     19    10    29    1
     20    10    30    1
     21    11    12    1
     22    11    31    1
     23    11    32    1
     24    12    13    1
     25    12    22    1
     26    12    33    1
     27    13    14    1
     28    13    34    1
     29    13    35    1
     30    14    15    2
     31    14    36    1
     32    15    16    1
     33    15    22    1
     34    16    17    2
     35    16    37    1
     36    17    18    1
     37    17    38    1
     38    18    19    1
     39    18    21    1
     40    18    39    1
     41    19    20    1
     42    20    40    1
     43    20    41    1
     44    20    42    1
     45    21    43    1
     46    21    44    1
     47    22    21    1
@<TRIPOS>MOLECULE
CHEMBL478358_LIG
33 35 1 0 0
SMALL
USER_CHARGES

@<TRIPOS>ATOM
1 C1 219.5830 153.1714 175.4372 C.2 778 ligands_prepared 0.0000
2 C2 218.6120 152.5130 174.8018 C.2 778 ligands_prepared 0.0000
3 C3 217.5828 151.6765 175.5060 C.3 778 ligands_prepared 0.0000
4 N4 216.6331 151.0758 174.4896 N.4 778 ligands_prepared 1.0000
5 C5 217.4274 150.2181 173.5221 C.3 778 ligands_prepared 0.0000
6 C6 218.5018 151.0640 172.8180 C.3 778 ligands_prepared 0.0000
7 C7 218.4191 152.5213 173.3107 C.3 778 ligands_prepared 0.0000
8 C8 217.0095 153.0725 173.0212 C.3 778 ligands_prepared 0.0000
9 C9 215.9588 152.1965 173.7225 C.3 778 ligands_prepared 0.0000
10 C10 219.7440 153.1425 176.8930 C.ar 778 ligands_prepared 0.0000
11 C11 220.9940 152.8681 177.4502 C.ar 778 ligands_prepared 0.0000
12 C12 221.1449 152.8481 178.8344 C.ar 778 ligands_prepared 0.0000
13 C13 220.0509 153.1020 179.6613 C.ar 778 ligands_prepared 0.0000
14 C14 218.8041 153.3770 179.1027 C.ar 778 ligands_prepared 0.0000
15 C15 218.6467 153.3994 177.7191 C.ar 778 ligands_prepared 0.0000
16 H16 220.3211 153.7747 174.8999 H 778 ligands_prepared 0.0000
17 H17 218.0583 150.8544 176.0953 H 778 ligands_prepared 0.0000
18 H18 216.9966 152.2827 176.2405 H 778 ligands_prepared 0.0000
19 H19 215.9095 150.4881 174.9804 H 778 ligands_prepared 0.0000
20 H20 217.8821 149.3719 174.0859 H 778 ligands_prepared 0.0000
21 H21 216.7230 149.7646 172.7877 H 778 ligands_prepared 0.0000
22 H22 219.5117 150.6503 173.0112 H 778 ligands_prepared 0.0000
23 H23 218.3721 151.0226 171.7188 H 778 ligands_prepared 0.0000
24 H24 219.1870 153.1437 172.7941 H 778 ligands_prepared 0.0000
25 H25 216.9319 154.1241 173.3628 H 778 ligands_prepared 0.0000
26 H26 216.8272 153.1033 171.9297 H 778 ligands_prepared 0.0000
27 H27 215.3418 152.7935 174.4338 H 778 ligands_prepared 0.0000
28 H28 215.2480 151.7496 172.9905 H 778 ligands_prepared 0.0000
29 H29 221.8458 152.6651 176.8001 H 778 ligands_prepared 0.0000
30 H30 222.1207 152.6304 179.2705 H 778 ligands_prepared 0.0000
31 H31 220.1701 153.0838 180.7439 H 778 ligands_prepared 0.0000
32 H32 217.9464 153.5741 179.7474 H 778 ligands_prepared 0.0000
33 H33 217.6727 153.6090 177.2777 H 778 ligands_prepared 0.0000
@<TRIPOS>BOND
      1     1     2    2
      2     1    10    1
      3     1    16    1
      4     2     3    1
      5     2     7    1
      6     3     4    1
      7     3    17    1
      8     3    18    1
      9     4     5    1
     10     4     9    1
     11     4    19    1
     12     5     6    1
     13     5    20    1
     14     5    21    1
     15     6     7    1
     16     6    22    1
     17     6    23    1
     18     7     8    1
     19     7    24    1
     20     8     9    1
     21     8    25    1
     22     8    26    1
     23     9    27    1
     24     9    28    1
     25    10    11   ar
     26    10    15   ar
     27    11    12   ar
     28    11    29    1
     29    12    13   ar
     30    12    30    1
     31    13    14   ar
     32    13    31    1
     33    14    15   ar
     34    14    32    1
     35    15    33    1
@<TRIPOS>MOLECULE
CHEMBL61616_LIG
27 27 1 0 0
SMALL
USER_CHARGES

@<TRIPOS>ATOM
1 C1 216.1139 152.2082 172.8027 C.3 778 ligands_prepared 0.0000
2 N2 217.0314 151.2952 173.5577 N.4 778 ligands_prepared 1.0000
3 C3 218.4022 151.3610 172.9574 C.3 778 ligands_prepared 0.0000
4 C4 217.0945 151.6824 175.0199 C.3 778 ligands_prepared 0.0000
5 C5 217.4454 153.1598 175.1861 C.3 778 ligands_prepared 0.0000
6 O6 217.6274 153.2898 176.6010 O.3 778 ligands_prepared 0.0000
7 C7 218.8658 153.0569 177.0996 C.ar 778 ligands_prepared 0.0000
8 C8 218.9674 153.2652 178.4838 C.ar 778 ligands_prepared 0.0000
9 C9 220.2096 153.0996 179.0761 C.ar 778 ligands_prepared 0.0000
10 C10 221.3008 152.7279 178.2742 C.ar 778 ligands_prepared 0.0000
11 N11 221.1912 152.5188 176.9511 N.ar 778 ligands_prepared 0.0000
12 C12 219.9916 152.6735 176.3578 C.ar 778 ligands_prepared 0.0000
13 H13 216.4568 153.2581 172.8585 H 778 ligands_prepared 0.0000
14 H14 215.0793 152.1659 173.1900 H 778 ligands_prepared 0.0000
15 H15 216.0867 151.9317 171.7315 H 778 ligands_prepared 0.0000
16 H16 216.6582 150.3086 173.4768 H 778 ligands_prepared 0.0000
17 H17 218.3825 151.0582 171.8918 H 778 ligands_prepared 0.0000
18 H18 218.8282 152.3806 173.0152 H 778 ligands_prepared 0.0000
19 H19 219.0905 150.6718 173.4801 H 778 ligands_prepared 0.0000
20 H20 216.1264 151.4542 175.5301 H 778 ligands_prepared 0.0000
21 H21 217.8671 151.0449 175.5276 H 778 ligands_prepared 0.0000
22 H22 218.3699 153.4585 174.6586 H 778 ligands_prepared 0.0000
23 H23 216.6059 153.8060 174.8537 H 778 ligands_prepared 0.0000
24 H24 218.0853 153.5515 179.0603 H 778 ligands_prepared 0.0000
25 H25 220.3399 153.2509 180.1490 H 778 ligands_prepared 0.0000
26 H26 222.3021 152.5965 178.7044 H 778 ligands_prepared 0.0000
27 H27 219.9537 152.4874 175.2784 H 778 ligands_prepared 0.0000
@<TRIPOS>BOND
      1     1     2    1
      2     1    13    1
      3     1    14    1
      4     1    15    1
      5     2     3    1
      6     2     4    1
      7     2    16    1
      8     3    17    1
      9     3    18    1
     10     3    19    1
     11     4     5    1
     12     4    20    1
     13     4    21    1
     14     5     6    1
     15     5    22    1
     16     5    23    1
     17     6     7    1
     18     7     8   ar
     19     7    12   ar
     20     8     9   ar
     21     8    24    1
     22     9    10   ar
     23     9    25    1
     24    10    11   ar
     25    10    26    1
     26    11    12   ar
     27    12    27    1
