@<TRIPOS>MOLECULE
CHEMBL2179847_LIG
49 52 1 0 0
SMALL
USER_CHARGES

@<TRIPOS>ATOM
   1 O1     222.3146 152.7750 176.1774   O.2      778 ligands_prepared   0.0000
   2 C2     222.2643 153.4186 177.2186   C.2      778 ligands_prepared   0.0000
   3 N3     223.3059 154.2280 177.5953   N.am     778 ligands_prepared   0.0000
   4 C4     224.4985 154.3568 176.7649   C.3      778 ligands_prepared   0.0000
   5 C5     225.0525 152.9719 176.3371   C.3      778 ligands_prepared   0.0000
   6 C6     226.1539 153.2315 175.2989   C.3      778 ligands_prepared   0.0000
   7 C7     227.2134 154.1618 175.9070   C.3      778 ligands_prepared   0.0000
   8 N8     226.9356 154.3851 177.3830   N.4      778 ligands_prepared   1.0000
   9 C9     226.8621 153.0360 178.0768   C.3      778 ligands_prepared   0.0000
  10 C10    225.6651 152.2399 177.5378   C.3      778 ligands_prepared   0.0000
  11 C11    225.6013 155.0972 177.5874   C.3      778 ligands_prepared   0.0000
  12 C12    225.7128 156.5742 177.2027   C.3      778 ligands_prepared   0.0000
  13 C13    226.6044 157.3070 178.1476   C.ar     778 ligands_prepared   0.0000
  14 C14    227.0815 156.6846 179.3051   C.ar     778 ligands_prepared   0.0000
  15 C15    227.9224 157.3892 180.1594   C.ar     778 ligands_prepared   0.0000
  16 C16    228.2578 158.7098 179.8342   C.ar     778 ligands_prepared   0.0000
  17 N17    227.7896 159.3229 178.7298   N.ar     778 ligands_prepared   0.0000
  18 C18    226.9770 158.6366 177.9024   C.ar     778 ligands_prepared   0.0000
  19 C19    221.0799 153.4048 178.1089   C.ar     778 ligands_prepared   0.0000
  20 C20    219.8052 153.1029 177.6216   C.ar     778 ligands_prepared   0.0000
  21 C21    218.7108 153.1028 178.4751   C.ar     778 ligands_prepared   0.0000
  22 C22    218.8984 153.4051 179.8298   C.ar     778 ligands_prepared   0.0000
  23 O23    217.7915 153.3797 180.5921   O.3      778 ligands_prepared   0.0000
  24 C24    220.1847 153.7119 180.3025   C.ar     778 ligands_prepared   0.0000
  25 F25    220.3511 154.0012 181.5849   F        778 ligands_prepared   0.0000
  26 C26    221.2834 153.7172 179.4544   C.ar     778 ligands_prepared   0.0000
  27 H27    223.2882 154.7479 178.4712   H        778 ligands_prepared   0.0000
  28 H28    224.2461 154.9504 175.8389   H        778 ligands_prepared   0.0000
  29 H29    224.2333 152.3607 175.8917   H        778 ligands_prepared   0.0000
  30 H30    226.6107 152.2726 174.9780   H        778 ligands_prepared   0.0000
  31 H31    225.7333 153.6704 174.3718   H        778 ligands_prepared   0.0000
  32 H32    228.2378 153.7307 175.8043   H        778 ligands_prepared   0.0000
  33 H33    227.2395 155.1464 175.3870   H        778 ligands_prepared   0.0000
  34 H34    227.7044 154.9695 177.8008   H        778 ligands_prepared   0.0000
  35 H35    227.8245 152.4969 177.9084   H        778 ligands_prepared   0.0000
  36 H36    226.7904 153.1963 179.1765   H        778 ligands_prepared   0.0000
  37 H37    224.9100 152.0738 178.3305   H        778 ligands_prepared   0.0000
  38 H38    225.9867 151.2195 177.2407   H        778 ligands_prepared   0.0000
  39 H39    225.3627 155.0249 178.6892   H        778 ligands_prepared   0.0000
  40 H40    224.6892 157.0308 177.2151   H        778 ligands_prepared   0.0000
  41 H41    226.0342 156.7012 176.1441   H        778 ligands_prepared   0.0000
  42 H42    226.7955 155.6547 179.5379   H        778 ligands_prepared   0.0000
  43 H43    228.3144 156.9246 181.0658   H        778 ligands_prepared   0.0000
  44 H44    228.9223 159.3077 180.4754   H        778 ligands_prepared   0.0000
  45 H45    226.6149 159.1829 177.0202   H        778 ligands_prepared   0.0000
  46 H46    219.6606 152.8701 176.5615   H        778 ligands_prepared   0.0000
  47 H47    217.7103 152.8652 178.1067   H        778 ligands_prepared   0.0000
  48 H48    216.9595 153.6891 180.1278   H        778 ligands_prepared   0.0000
  49 H49    222.2877 153.9569 179.8222   H        778 ligands_prepared   0.0000
@<TRIPOS>BOND
   1  1  2    2
   2  2  3   am
   3  2 19    1
   4  3  4    1
   5  3 27    1
   6  4  5    1
   7  4 11    1
   8  4 28    1
   9  5  6    1
  10  5 10    1
  11  5 29    1
  12  6  7    1
  13  6 30    1
  14  6 31    1
  15  7  8    1
  16  7 32    1
  17  7 33    1
  18  8  9    1
  19  8 11    1
  20  8 34    1
  21  9 10    1
  22  9 35    1
  23  9 36    1
  24 10 37    1
  25 10 38    1
  26 11 12    1
  27 11 39    1
  28 12 13    1
  29 12 40    1
  30 12 41    1
  31 13 14   ar
  32 13 18   ar
  33 14 15   ar
  34 14 42    1
  35 15 16   ar
  36 15 43    1
  37 16 17   ar
  38 16 44    1
  39 17 18   ar
  40 18 45    1
  41 19 20   ar
  42 19 26   ar
  43 20 21   ar
  44 20 46    1
  45 21 22   ar
  46 21 47    1
  47 22 23    1
  48 22 24   ar
  49 23 48    1
  50 24 25    1
  51 24 26   ar
  52 26 49    1
