@<TRIPOS>MOLECULE
CHEMBL2179866_LIG
45 48 1 0 0
SMALL
USER_CHARGES

@<TRIPOS>ATOM
   1 O1     224.8005 151.2698 176.9426   O.2      778 ligands_prepared   0.0000
   2 C2     224.0507 152.2071 177.1852   C.2      778 ligands_prepared   0.0000
   3 N3     222.7362 152.0085 177.5146   N.am     778 ligands_prepared   0.0000
   4 C4     221.8486 153.1414 177.7653   C.3      778 ligands_prepared   0.0000
   5 C5     221.7260 153.4071 179.2894   C.3      778 ligands_prepared   0.0000
   6 C6     221.0131 154.7553 179.4539   C.3      778 ligands_prepared   0.0000
   7 C7     219.6615 154.7008 178.7285   C.3      778 ligands_prepared   0.0000
   8 N8     219.3842 153.2997 178.2168   N.4      778 ligands_prepared   0.0000
   9 C9     219.4460 152.3514 179.4054   C.3      778 ligands_prepared   0.0000
  10 C10    220.8789 152.3160 179.9605   C.3      778 ligands_prepared   0.0000
  11 C11    220.4259 152.8266 177.2068   C.3      778 ligands_prepared   0.0000
  12 C12    220.1634 153.3515 175.7916   C.3      778 ligands_prepared   0.0000
  13 C13    218.9824 152.7967 175.0735   C.ar     778 ligands_prepared   0.0000
  14 C14    217.6824 153.0980 175.4896   C.ar     778 ligands_prepared   0.0000
  15 C15    216.6019 152.5578 174.7997   C.ar     778 ligands_prepared   0.0000
  16 C16    216.8516 151.7151 173.7108   C.ar     778 ligands_prepared   0.0000
  17 N17    218.1006 151.3877 173.3241   N.ar     778 ligands_prepared   0.0000
  18 C18    219.1434 151.9095 173.9975   C.ar     778 ligands_prepared   0.0000
  19 C19    224.5151 153.5944 177.1219   C.2      778 ligands_prepared   0.0000
  20 C20    224.2381 154.6397 176.2791   C.2      778 ligands_prepared   0.0000
  21 C21    225.0166 155.7582 176.7417   C.2      778 ligands_prepared   0.0000
  22 C22    225.7061 155.3002 177.8314   C.2      778 ligands_prepared   0.0000
  23 Br23   226.9001 156.0260 179.0278   Br       778 ligands_prepared   0.0000
  24 O24    225.4310 153.9822 178.0983   O.3      778 ligands_prepared   0.0000
  25 H25    222.3202 151.0786 177.5303   H        778 ligands_prepared   0.0000
  26 H26    222.2710 154.0559 177.2640   H        778 ligands_prepared   0.0000
  27 H27    222.7410 153.4459 179.7531   H        778 ligands_prepared   0.0000
  28 H28    220.8708 154.9850 180.5303   H        778 ligands_prepared   0.0000
  29 H29    221.6338 155.5875 179.0668   H        778 ligands_prepared   0.0000
  30 H30    219.6256 155.4218 177.8868   H        778 ligands_prepared   0.0000
  31 H31    218.8271 154.9934 179.4116   H        778 ligands_prepared   0.0000
  32 H32    218.4277 153.2682 177.7774   H        778 ligands_prepared   0.0000
  33 H33    218.7160 152.6935 180.1738   H        778 ligands_prepared   0.0000
  34 H34    219.1023 151.3424 179.0820   H        778 ligands_prepared   0.0000
  35 H35    221.3296 151.3140 179.8192   H        778 ligands_prepared   0.0000
  36 H36    220.8678 152.4636 181.0602   H        778 ligands_prepared   0.0000
  37 H37    220.3087 151.6966 177.1497   H        778 ligands_prepared   0.0000
  38 H38    221.0881 153.2220 175.1762   H        778 ligands_prepared   0.0000
  39 H39    220.0647 154.4681 175.8678   H        778 ligands_prepared   0.0000
  40 H40    217.5151 153.7503 176.3515   H        778 ligands_prepared   0.0000
  41 H41    215.5785 152.7851 175.1013   H        778 ligands_prepared   0.0000
  42 H42    216.0322 151.2729 173.1266   H        778 ligands_prepared   0.0000
  43 H43    220.1434 151.5917 173.6594   H        778 ligands_prepared   0.0000
  44 H44    223.5737 154.6480 175.4299   H        778 ligands_prepared   0.0000
  45 H45    225.0304 156.7387 176.3006   H        778 ligands_prepared   0.0000
@<TRIPOS>BOND
   1  1  2    2
   2  2  3   am
   3  2 19    1
   4  3  4    1
   5  3 25    1
   6  4  5    1
   7  4 11    1
   8  4 26    1
   9  5  6    1
  10  5 10    1
  11  5 27    1
  12  6  7    1
  13  6 28    1
  14  6 29    1
  15  7  8    1
  16  7 30    1
  17  7 31    1
  18  8  9    1
  19  8 11    1
  20  8 32    1
  21  9 10    1
  22  9 33    1
  23  9 34    1
  24 10 35    1
  25 10 36    1
  26 11 12    1
  27 11 37    1
  28 12 13    1
  29 12 38    1
  30 12 39    1
  31 13 14   ar
  32 13 18   ar
  33 14 15   ar
  34 14 40    1
  35 15 16   ar
  36 15 41    1
  37 16 17   ar
  38 16 42    1
  39 17 18   ar
  40 18 43    1
  41 19 20    2
  42 19 24    1
  43 20 21    1
  44 20 44    1
  45 21 22    2
  46 21 45    1
  47 22 23    1
  48 22 24    1
