@<TRIPOS>MOLECULE
CHEMBL2409472_LIG
34 36 1 0 0
SMALL
USER_CHARGES

@<TRIPOS>ATOM
   1 O1     221.0182 152.2061 176.9095   O.2      778 ligands_prepared   0.0000
   2 C2     219.9132 152.6954 176.8031   C.2      778 ligands_prepared   0.0000
   3 C3     219.4086 153.6697 177.8036   C.3      778 ligands_prepared   0.0000
   4 C4     220.2907 153.9999 178.9982   C.3      778 ligands_prepared   0.0000
   5 C5     219.0612 153.1659 179.1953   C.3      778 ligands_prepared   0.0000
   6 C6     218.9700 152.3080 175.6807   C.3      778 ligands_prepared   0.0000
   7 C7     217.7095 153.2474 175.6567   C.3      778 ligands_prepared   0.0000
   8 C8     216.8705 153.1935 174.3664   C.3      778 ligands_prepared   0.0000
   9 C9     216.1004 151.8642 174.2696   C.3      778 ligands_prepared   0.0000
  10 N10    217.0609 150.6988 174.1853   N.4      778 ligands_prepared   1.0000
  11 C11    218.0077 150.8617 173.0183   C.3      778 ligands_prepared   0.0000
  12 C12    218.7635 152.2023 173.0964   C.3      778 ligands_prepared   0.0000
  13 C13    217.7437 153.3445 173.1164   C.3      778 ligands_prepared   0.0000
  14 C14    219.6901 152.2645 174.3249   C.3      778 ligands_prepared   0.0000
  15 H15    218.7936 154.4759 177.3783   H        778 ligands_prepared   0.0000
  16 H16    220.3241 155.0297 179.3539   H        778 ligands_prepared   0.0000
  17 H17    221.2767 153.5431 179.0733   H        778 ligands_prepared   0.0000
  18 H18    219.1566 152.1010 179.4096   H        778 ligands_prepared   0.0000
  19 H19    218.1883 153.5807 179.6988   H        778 ligands_prepared   0.0000
  20 H20    218.6267 151.2553 175.9050   H        778 ligands_prepared   0.0000
  21 H21    217.0744 153.0286 176.5419   H        778 ligands_prepared   0.0000
  22 H22    218.0340 154.2954 175.8297   H        778 ligands_prepared   0.0000
  23 H23    216.1159 154.0211 174.3897   H        778 ligands_prepared   0.0000
  24 H24    215.4337 151.8558 173.3774   H        778 ligands_prepared   0.0000
  25 H25    215.4396 151.7158 175.1556   H        778 ligands_prepared   0.0000
  26 H26    217.6097 150.6388 175.0718   H        778 ligands_prepared   0.0000
  27 H27    216.5324 149.8028 174.0990   H        778 ligands_prepared   0.0000
  28 H28    218.7160 149.9996 173.0164   H        778 ligands_prepared   0.0000
  29 H29    217.4282 150.7939 172.0690   H        778 ligands_prepared   0.0000
  30 H30    219.3891 152.2821 172.1706   H        778 ligands_prepared   0.0000
  31 H31    217.1225 153.3374 172.1998   H        778 ligands_prepared   0.0000
  32 H32    218.2564 154.3248 173.1082   H        778 ligands_prepared   0.0000
  33 H33    220.3993 151.4121 174.3154   H        778 ligands_prepared   0.0000
  34 H34    220.3391 153.1633 174.2360   H        778 ligands_prepared   0.0000
@<TRIPOS>BOND
   1  1  2    2
   2  2  3    1
   3  2  6    1
   4  3  4    1
   5  3  5    1
   6  3 15    1
   7  4  5    1
   8  4 16    1
   9  4 17    1
  10  5 18    1
  11  5 19    1
  12  7  6    1
  13  6 14    1
  14  6 20    1
  15  7  8    1
  16  7 21    1
  17  7 22    1
  18  8  9    1
  19  8 13    1
  20  8 23    1
  21  9 10    1
  22  9 24    1
  23  9 25    1
  24 10 11    1
  25 10 26    1
  26 10 27    1
  27 11 12    1
  28 11 28    1
  29 11 29    1
  30 12 13    1
  31 12 14    1
  32 12 30    1
  33 13 31    1
  34 13 32    1
  35 14 33    1
  36 14 34    1
