@<TRIPOS>MOLECULE
CHEMBL2381568_ncw_LIG
34 35 1 0 0
SMALL
USER_CHARGES

@<TRIPOS>ATOM
   1 C1     218.3896 150.7994 172.8405   C.3      778 ligands_prepared   0.0000
   2 N2     217.8643 152.1998 172.7434   N.4      778 ligands_prepared   1.0000
   3 C3     216.4026 152.1991 172.3242   C.3      778 ligands_prepared   0.0000
   4 C4     215.5846 152.4942 173.6004   C.3      778 ligands_prepared   0.0000
   5 C5     216.7326 152.4442 174.9212   C.3      778 ligands_prepared   0.0000
   6 C6     217.9479 152.9123 174.1039   C.3      778 ligands_prepared   0.0000
   7 C7     219.2510 152.5581 174.8193   C.3      778 ligands_prepared   0.0000
   8 O8     219.2310 153.0813 176.1439   O.3      778 ligands_prepared   0.0000
   9 C9     220.3012 152.8459 176.9412   C.2      778 ligands_prepared   0.0000
  10 O10    221.3498 152.4482 176.4743   O.2      778 ligands_prepared   0.0000
  11 C11    220.0225 153.1521 178.3451   C.ar     778 ligands_prepared   0.0000
  12 C12    221.1002 153.5050 179.1644   C.ar     778 ligands_prepared   0.0000
  13 C13    220.8742 153.8010 180.5047   C.ar     778 ligands_prepared   0.0000
  14 C14    219.5791 153.7470 181.0206   C.ar     778 ligands_prepared   0.0000
  15 C15    218.5057 153.3988 180.2004   C.ar     778 ligands_prepared   0.0000
  16 C16    218.7230 153.1022 178.8574   C.ar     778 ligands_prepared   0.0000
  17 H17    217.8329 150.2021 173.5860   H        778 ligands_prepared   0.0000
  18 H18    218.3202 150.2804 171.8669   H        778 ligands_prepared   0.0000
  19 H19    219.4571 150.8033 173.1374   H        778 ligands_prepared   0.0000
  20 H20    218.4358 152.7260 172.0233   H        778 ligands_prepared   0.0000
  21 H21    216.2206 152.9448 171.5217   H        778 ligands_prepared   0.0000
  22 H22    216.1579 151.2014 171.8923   H        778 ligands_prepared   0.0000
  23 H23    215.2022 153.5334 173.6150   H        778 ligands_prepared   0.0000
  24 H24    214.6879 151.8497 173.6792   H        778 ligands_prepared   0.0000
  25 H25    216.8987 151.4455 175.3748   H        778 ligands_prepared   0.0000
  26 H26    216.5380 153.1239 175.7731   H        778 ligands_prepared   0.0000
  27 H27    217.9032 154.0230 173.9324   H        778 ligands_prepared   0.0000
  28 H28    219.3176 151.4599 175.0072   H        778 ligands_prepared   0.0000
  29 H29    220.1626 152.8754 174.2759   H        778 ligands_prepared   0.0000
  30 H30    222.1124 153.5441 178.7510   H        778 ligands_prepared   0.0000
  31 H31    221.7116 154.0725 181.1502   H        778 ligands_prepared   0.0000
  32 H32    219.4043 153.9771 182.0749   H        778 ligands_prepared   0.0000
  33 H33    217.4945 153.3573 180.6091   H        778 ligands_prepared   0.0000
  34 H34    217.8827 152.8297 178.2132   H        778 ligands_prepared   0.0000
@<TRIPOS>BOND
   1  1  2    1
   2  1 17    1
   3  1 18    1
   4  1 19    1
   5  2  3    1
   6  2  6    1
   7  2 20    1
   8  3  4    1
   9  3 21    1
  10  3 22    1
  11  4  5    1
  12  4 23    1
  13  4 24    1
  14  5  6    1
  15  5 25    1
  16  5 26    1
  17  6  7    1
  18  6 27    1
  19  7  8    1
  20  7 28    1
  21  7 29    1
  22  8  9    1
  23  9 10    2
  24  9 11    1
  25 11 12   ar
  26 11 16   ar
  27 12 13   ar
  28 12 30    1
  29 13 14   ar
  30 13 31    1
  31 14 15   ar
  32 14 32    1
  33 15 16   ar
  34 15 33    1
  35 16 34    1
