@<TRIPOS>MOLECULE
CHEMBL3329544_LIG
30 32 1 0 0
SMALL
USER_CHARGES

@<TRIPOS>ATOM
   1 C1     220.3388 154.0317 179.8000   C.3      778 ligands_prepared   0.0000
   2 C2     219.8316 153.0939 178.7426   C.3      778 ligands_prepared   0.0000
   3 C3     218.3737 153.1009 178.3568   C.3      778 ligands_prepared   0.0000
   4 C4     219.4006 153.6639 177.3966   C.3      778 ligands_prepared   0.0000
   5 C5     219.7532 152.9023 176.1717   C.2      778 ligands_prepared   0.0000
   6 O6     220.8940 152.5124 175.9383   O.2      778 ligands_prepared   0.0000
   7 N7     218.7732 152.6441 175.2466   N.am     778 ligands_prepared   0.0000
   8 C8     217.3710 153.0519 175.4696   C.3      778 ligands_prepared   0.0000
   9 C9     216.4261 152.2882 174.5294   C.3      778 ligands_prepared   0.0000
  10 C10    216.8906 152.4918 173.0599   C.3      778 ligands_prepared   0.0000
  11 C11    217.8967 151.3365 173.3277   C.3      778 ligands_prepared   0.0000
  12 C12    219.1424 151.9014 174.0199   C.3      778 ligands_prepared   0.0000
  13 N13    216.9414 150.8283 174.4405   N.4      778 ligands_prepared   1.0000
  14 H14    220.1936 153.6092 180.8055   H        778 ligands_prepared   0.0000
  15 H15    219.8279 155.0038 179.7823   H        778 ligands_prepared   0.0000
  16 H16    221.4140 154.2283 179.6758   H        778 ligands_prepared   0.0000
  17 H17    220.3582 152.1269 178.7331   H        778 ligands_prepared   0.0000
  18 H18    217.6774 153.7850 178.8446   H        778 ligands_prepared   0.0000
  19 H19    217.8658 152.1669 178.1243   H        778 ligands_prepared   0.0000
  20 H20    219.4383 154.7547 177.2455   H        778 ligands_prepared   0.0000
  21 H21    217.0900 152.8725 176.5375   H        778 ligands_prepared   0.0000
  22 H22    217.2566 154.1521 175.2950   H        778 ligands_prepared   0.0000
  23 H23    215.3558 152.3862 174.7759   H        778 ligands_prepared   0.0000
  24 H24    217.3189 153.4693 172.8113   H        778 ligands_prepared   0.0000
  25 H25    216.1274 152.2749 172.2988   H        778 ligands_prepared   0.0000
  26 H26    218.1016 150.6056 172.5280   H        778 ligands_prepared   0.0000
  27 H27    219.8603 151.0834 174.2852   H        778 ligands_prepared   0.0000
  28 H28    219.6905 152.5781 173.3173   H        778 ligands_prepared   0.0000
  29 H29    217.3892 150.4517 175.2875   H        778 ligands_prepared   0.0000
  30 H30    216.2335 150.1498 174.1133   H        778 ligands_prepared   0.0000
@<TRIPOS>BOND
   1  1  2    1
   2  1 14    1
   3  1 15    1
   4  1 16    1
   5  2  3    1
   6  2  4    1
   7  2 17    1
   8  3  4    1
   9  3 18    1
  10  3 19    1
  11  4  5    1
  12  4 20    1
  13  5  6    2
  14  5  7   am
  15  8  7    1
  16  7 12    1
  17  8  9    1
  18  8 21    1
  19  8 22    1
  20  9 10    1
  21  9 13    1
  22  9 23    1
  23 10 11    1
  24 10 24    1
  25 10 25    1
  26 11 12    1
  27 11 13    1
  28 11 26    1
  29 12 27    1
  30 12 28    1
  31 13 29    1
  32 13 30    1
