@<TRIPOS>MOLECULE
CHEMBL2407115_LIG
38 39 1 0 0
SMALL
USER_CHARGES

@<TRIPOS>ATOM
   1 C1     220.5923 153.9998 178.8678   C.3      778 ligands_prepared   0.0000
   2 C2     219.5016 152.9435 179.0882   C.3      778 ligands_prepared   0.0000
   3 C3     218.5145 153.3998 180.1696   C.3      778 ligands_prepared   0.0000
   4 N4     218.7694 152.7419 177.8205   N.am     778 ligands_prepared   0.0000
   5 C5     219.4076 152.4152 176.6625   C.2      778 ligands_prepared   0.0000
   6 O6     220.6296 152.2914 176.6280   O.2      778 ligands_prepared   0.0000
   7 C7     218.5337 152.1989 175.4391   C.3      778 ligands_prepared   0.0000
   8 C8     217.4580 153.2927 175.3771   C.3      778 ligands_prepared   0.0000
   9 C9     216.6844 153.2543 174.0481   C.3      778 ligands_prepared   0.0000
  10 C10    215.8730 151.9492 173.9056   C.3      778 ligands_prepared   0.0000
  11 N11    216.7582 150.7418 173.8198   N.4      778 ligands_prepared   1.0000
  12 C12    217.8319 150.8770 172.7640   C.3      778 ligands_prepared   0.0000
  13 C13    218.6237 152.1947 172.8992   C.3      778 ligands_prepared   0.0000
  14 C14    217.6777 153.4015 172.8893   C.3      778 ligands_prepared   0.0000
  15 C15    219.4443 152.2155 174.1998   C.3      778 ligands_prepared   0.0000
  16 H16    220.1684 154.9745 178.5934   H        778 ligands_prepared   0.0000
  17 H17    221.2767 153.7066 178.0626   H        778 ligands_prepared   0.0000
  18 H18    221.1887 154.1443 179.7761   H        778 ligands_prepared   0.0000
  19 H19    219.9722 151.9690 179.3927   H        778 ligands_prepared   0.0000
  20 H20    218.0839 154.3839 179.9465   H        778 ligands_prepared   0.0000
  21 H21    219.0124 153.4717 181.1450   H        778 ligands_prepared   0.0000
  22 H22    217.6791 152.6970 180.2746   H        778 ligands_prepared   0.0000
  23 H23    217.7577 152.8300 177.8590   H        778 ligands_prepared   0.0000
  24 H24    218.0247 151.2024 175.5070   H        778 ligands_prepared   0.0000
  25 H25    217.9271 154.2912 175.4979   H        778 ligands_prepared   0.0000
  26 H26    216.7606 153.1878 176.2318   H        778 ligands_prepared   0.0000
  27 H27    215.9704 154.1162 174.0326   H        778 ligands_prepared   0.0000
  28 H28    215.2383 151.9806 172.9880   H        778 ligands_prepared   0.0000
  29 H29    215.1671 151.8142 174.7572   H        778 ligands_prepared   0.0000
  30 H30    216.1717 149.9025 173.6149   H        778 ligands_prepared   0.0000
  31 H31    217.1995 150.5707 174.7522   H        778 ligands_prepared   0.0000
  32 H32    218.5022 149.9891 172.8186   H        778 ligands_prepared   0.0000
  33 H33    217.3364 150.8176 171.7661   H        778 ligands_prepared   0.0000
  34 H34    219.3308 152.2730 172.0353   H        778 ligands_prepared   0.0000
  35 H35    217.1587 153.5062 171.9179   H        778 ligands_prepared   0.0000
  36 H36    218.2566 154.3413 172.9976   H        778 ligands_prepared   0.0000
  37 H37    220.1432 151.3574 174.2254   H        778 ligands_prepared   0.0000
  38 H38    220.0849 153.1223 174.2112   H        778 ligands_prepared   0.0000
@<TRIPOS>BOND
   1  1  2    1
   2  1 16    1
   3  1 17    1
   4  1 18    1
   5  2  3    1
   6  2  4    1
   7  2 19    1
   8  3 20    1
   9  3 21    1
  10  3 22    1
  11  4  5   am
  12  4 23    1
  13  5  6    2
  14  5  7    1
  15  8  7    1
  16  7 15    1
  17  7 24    1
  18  8  9    1
  19  8 25    1
  20  8 26    1
  21  9 10    1
  22  9 14    1
  23  9 27    1
  24 10 11    1
  25 10 28    1
  26 10 29    1
  27 11 12    1
  28 11 30    1
  29 11 31    1
  30 12 13    1
  31 12 32    1
  32 12 33    1
  33 13 14    1
  34 13 15    1
  35 13 34    1
  36 14 35    1
  37 14 36    1
  38 15 37    1
  39 15 38    1
