@<TRIPOS>MOLECULE
CHEMBL1258006_LIG
51 55 1 0 0
SMALL
USER_CHARGES

@<TRIPOS>ATOM
   1 O1     224.7792 151.1167 176.8991   O.2      778 ligands_prepared   0.0000
   2 C2     224.0604 152.0812 177.1185   C.2      778 ligands_prepared   0.0000
   3 N3     222.7372 151.9449 177.4405   N.am     778 ligands_prepared   0.0000
   4 C4     221.8927 153.1138 177.6578   C.3      778 ligands_prepared   0.0000
   5 C5     221.7584 153.4252 179.1733   C.3      778 ligands_prepared   0.0000
   6 C6     220.8676 152.3746 179.8522   C.3      778 ligands_prepared   0.0000
   7 C7     219.4401 152.4723 179.2931   C.3      778 ligands_prepared   0.0000
   8 N8     219.4313 153.3638 178.0640   N.4      778 ligands_prepared   1.0000
   9 C9     219.7741 154.7803 178.4854   C.3      778 ligands_prepared   0.0000
  10 C10    221.0781 154.7954 179.2971   C.3      778 ligands_prepared   0.0000
  11 C11    220.4687 152.8220 177.0858   C.3      778 ligands_prepared   0.0000
  12 C12    220.2672 153.4248 175.6902   C.3      778 ligands_prepared   0.0000
  13 C13    219.0805 152.8007 175.0339   C.ar     778 ligands_prepared   0.0000
  14 C14    217.7841 153.1000 175.4627   C.ar     778 ligands_prepared   0.0000
  15 C15    216.7008 152.4947 174.8308   C.ar     778 ligands_prepared   0.0000
  16 C16    216.9473 151.6178 173.7691   C.ar     778 ligands_prepared   0.0000
  17 N17    218.1948 151.3273 173.3450   N.ar     778 ligands_prepared   0.0000
  18 C18    219.2411 151.8987 173.9700   C.ar     778 ligands_prepared   0.0000
  19 C19    224.5387 153.4724 177.0673   C.2      778 ligands_prepared   0.0000
  20 C20    224.3151 154.5258 176.2364   C.2      778 ligands_prepared   0.0000
  21 C21    225.1218 155.6141 176.7440   C.ar     778 ligands_prepared   0.0000
  22 C22    225.3703 156.9333 176.3684   C.ar     778 ligands_prepared   0.0000
  23 C23    226.2710 157.6692 177.1304   C.ar     778 ligands_prepared   0.0000
  24 C24    226.9230 157.1178 178.2489   C.ar     778 ligands_prepared   0.0000
  25 C25    226.6940 155.8074 178.6496   C.ar     778 ligands_prepared   0.0000
  26 C26    225.7901 155.0917 177.8811   C.ar     778 ligands_prepared   0.0000
  27 O27    225.4308 153.7758 178.0991   O.3      778 ligands_prepared   0.0000
  28 H28    222.3066 151.0281 177.5647   H        778 ligands_prepared   0.0000
  29 H29    222.3406 154.0071 177.1346   H        778 ligands_prepared   0.0000
  30 H30    222.7683 153.4424 179.6462   H        778 ligands_prepared   0.0000
  31 H31    220.8606 152.5309 180.9502   H        778 ligands_prepared   0.0000
  32 H32    221.2786 151.3541 179.7178   H        778 ligands_prepared   0.0000
  33 H33    218.7323 152.8928 180.0444   H        778 ligands_prepared   0.0000
  34 H34    219.0374 151.4714 179.0150   H        778 ligands_prepared   0.0000
  35 H35    218.4766 153.3491 177.6165   H        778 ligands_prepared   0.0000
  36 H36    218.9233 155.1877 179.0803   H        778 ligands_prepared   0.0000
  37 H37    219.8505 155.4188 177.5764   H        778 ligands_prepared   0.0000
  38 H38    220.8749 155.0234 180.3638   H        778 ligands_prepared   0.0000
  39 H39    221.7452 155.6109 178.9543   H        778 ligands_prepared   0.0000
  40 H40    220.3017 151.7062 177.0249   H        778 ligands_prepared   0.0000
  41 H41    220.1202 154.5295 175.7607   H        778 ligands_prepared   0.0000
  42 H42    221.1822 153.3128 175.0666   H        778 ligands_prepared   0.0000
  43 H43    217.6201 153.8004 176.2849   H        778 ligands_prepared   0.0000
  44 H44    215.6808 152.7012 175.1548   H        778 ligands_prepared   0.0000
  45 H45    216.1268 151.1243 173.2318   H        778 ligands_prepared   0.0000
  46 H46    220.2383 151.6150 173.6049   H        778 ligands_prepared   0.0000
  47 H47    223.6778 154.5723 175.3682   H        778 ligands_prepared   0.0000
  48 H48    224.8752 157.3646 175.4985   H        778 ligands_prepared   0.0000
  49 H49    226.4843 158.7042 176.8550   H        778 ligands_prepared   0.0000
  50 H50    227.6258 157.7388 178.8111   H        778 ligands_prepared   0.0000
  51 H51    227.1959 155.3623 179.5064   H        778 ligands_prepared   0.0000
@<TRIPOS>BOND
   1  1  2    2
   2  2  3   am
   3  2 19    1
   4  3  4    1
   5  3 28    1
   6  4  5    1
   7  4 11    1
   8  4 29    1
   9  5  6    1
  10  5 10    1
  11  5 30    1
  12  6  7    1
  13  6 31    1
  14  6 32    1
  15  7  8    1
  16  7 33    1
  17  7 34    1
  18  8  9    1
  19  8 11    1
  20  8 35    1
  21  9 10    1
  22  9 36    1
  23  9 37    1
  24 10 38    1
  25 10 39    1
  26 11 12    1
  27 11 40    1
  28 12 13    1
  29 12 41    1
  30 12 42    1
  31 13 14   ar
  32 13 18   ar
  33 14 15   ar
  34 14 43    1
  35 15 16   ar
  36 15 44    1
  37 16 17   ar
  38 16 45    1
  39 17 18   ar
  40 18 46    1
  41 19 20    2
  42 19 27    1
  43 20 21    1
  44 20 47    1
  45 21 22   ar
  46 21 26   ar
  47 22 23   ar
  48 22 48    1
  49 23 24   ar
  50 23 49    1
  51 24 25   ar
  52 24 50    1
  53 25 26   ar
  54 25 51    1
  55 26 27    1
