@<TRIPOS>MOLECULE
CHEMBL2180252_LIG
54 58 1 0 0
SMALL
USER_CHARGES

@<TRIPOS>ATOM
   1 C1     227.8433 157.9362 179.0786   C.3      778 ligands_prepared   0.0000
   2 C2     226.8994 157.1036 178.2881   C.ar     778 ligands_prepared   0.0000
   3 C3     226.2945 157.6561 177.1373   C.ar     778 ligands_prepared   0.0000
   4 C4     225.3980 156.9371 176.3609   C.ar     778 ligands_prepared   0.0000
   5 C5     225.1040 155.6277 176.7415   C.ar     778 ligands_prepared   0.0000
   6 C6     224.2659 154.5696 176.2289   C.2      778 ligands_prepared   0.0000
   7 C7     224.4470 153.5043 177.0616   C.2      778 ligands_prepared   0.0000
   8 C8     223.9658 152.1194 177.0882   C.2      778 ligands_prepared   0.0000
   9 O9     224.7060 151.1612 176.9024   O.2      778 ligands_prepared   0.0000
  10 N10    222.6252 151.9442 177.3048   N.am     778 ligands_prepared   0.0000
  11 C11    221.7805 153.1089 177.5589   C.3      778 ligands_prepared   0.0000
  12 C12    221.8247 153.5139 179.0527   C.3      778 ligands_prepared   0.0000
  13 C13    221.2187 152.4187 179.9402   C.3      778 ligands_prepared   0.0000
  14 C14    219.7945 152.0905 179.4683   C.3      778 ligands_prepared   0.0000
  15 N15    219.3881 153.0433 178.3592   N.4      778 ligands_prepared   1.0000
  16 C16    219.5136 154.4672 178.8653   C.3      778 ligands_prepared   0.0000
  17 C17    220.9800 154.7896 179.1875   C.3      778 ligands_prepared   0.0000
  18 C18    220.2993 152.8004 177.1579   C.3      778 ligands_prepared   0.0000
  19 C19    219.8716 153.6629 175.9667   C.3      778 ligands_prepared   0.0000
  20 C20    218.7964 153.0172 175.1615   C.ar     778 ligands_prepared   0.0000
  21 C21    217.4623 153.4033 175.3067   C.ar     778 ligands_prepared   0.0000
  22 C22    216.4844 152.7753 174.5426   C.ar     778 ligands_prepared   0.0000
  23 C23    216.8743 151.7798 173.6398   C.ar     778 ligands_prepared   0.0000
  24 N24    218.1612 151.4095 173.4845   N.ar     778 ligands_prepared   0.0000
  25 C25    219.1047 152.0165 174.2281   C.ar     778 ligands_prepared   0.0000
  26 O26    225.3406 153.7872 178.1025   O.3      778 ligands_prepared   0.0000
  27 C27    225.7313 155.0936 177.8929   C.ar     778 ligands_prepared   0.0000
  28 C28    226.6220 155.7974 178.6892   C.ar     778 ligands_prepared   0.0000
  29 H29    228.4209 157.3552 179.8133   H        778 ligands_prepared   0.0000
  30 H30    228.5719 158.4597 178.4394   H        778 ligands_prepared   0.0000
  31 H31    227.3065 158.7188 179.6427   H        778 ligands_prepared   0.0000
  32 H32    226.5439 158.6801 176.8560   H        778 ligands_prepared   0.0000
  33 H33    224.9345 157.3748 175.4770   H        778 ligands_prepared   0.0000
  34 H34    223.6412 154.6408 175.3548   H        778 ligands_prepared   0.0000
  35 H35    222.1823 151.0273 177.2771   H        778 ligands_prepared   0.0000
  36 H36    222.1651 153.9705 176.9373   H        778 ligands_prepared   0.0000
  37 H37    222.8792 153.7149 179.3599   H        778 ligands_prepared   0.0000
  38 H38    221.8473 151.5068 179.9482   H        778 ligands_prepared   0.0000
  39 H39    221.2092 152.7559 180.9978   H        778 ligands_prepared   0.0000
  40 H40    219.0563 152.1731 180.3001   H        778 ligands_prepared   0.0000
  41 H41    219.7165 151.0434 179.0921   H        778 ligands_prepared   0.0000
  42 H42    218.3930 152.8564 178.0709   H        778 ligands_prepared   0.0000
  43 H43    219.0980 155.1665 178.1071   H        778 ligands_prepared   0.0000
  44 H44    218.8678 154.5774 179.7690   H        778 ligands_prepared   0.0000
  45 H45    221.0696 155.2052 180.2118   H        778 ligands_prepared   0.0000
  46 H46    221.3634 155.5919 178.5246   H        778 ligands_prepared   0.0000
  47 H47    220.1967 151.7115 176.8901   H        778 ligands_prepared   0.0000
  48 H48    220.7732 153.8576 175.3284   H        778 ligands_prepared   0.0000
  49 H49    219.5719 154.6844 176.2985   H        778 ligands_prepared   0.0000
  50 H50    217.1833 154.1961 176.0073   H        778 ligands_prepared   0.0000
  51 H51    215.4343 153.0531 174.6407   H        778 ligands_prepared   0.0000
  52 H52    216.1401 151.2583 173.0084   H        778 ligands_prepared   0.0000
  53 H53    220.1402 151.6867 174.0586   H        778 ligands_prepared   0.0000
  54 H54    227.0736 155.3520 179.5714   H        778 ligands_prepared   0.0000
@<TRIPOS>BOND
   1  1  2    1
   2  1 29    1
   3  1 30    1
   4  1 31    1
   5  2  3   ar
   6  2 28   ar
   7  3  4   ar
   8  3 32    1
   9  4  5   ar
  10  4 33    1
  11  5  6    1
  12  5 27   ar
  13  6  7    2
  14  6 34    1
  15  7  8    1
  16  7 26    1
  17  8  9    2
  18  8 10   am
  19 10 11    1
  20 10 35    1
  21 11 12    1
  22 11 18    1
  23 11 36    1
  24 12 13    1
  25 12 17    1
  26 12 37    1
  27 13 14    1
  28 13 38    1
  29 13 39    1
  30 14 15    1
  31 14 40    1
  32 14 41    1
  33 15 16    1
  34 15 18    1
  35 15 42    1
  36 16 17    1
  37 16 43    1
  38 16 44    1
  39 17 45    1
  40 17 46    1
  41 18 19    1
  42 18 47    1
  43 19 20    1
  44 19 48    1
  45 19 49    1
  46 20 21   ar
  47 20 25   ar
  48 21 22   ar
  49 21 50    1
  50 22 23   ar
  51 22 51    1
  52 23 24   ar
  53 23 52    1
  54 24 25   ar
  55 25 53    1
  56 26 27    1
  57 27 28   ar
  58 28 54    1
