@<TRIPOS>MOLECULE
CHEMBL3329528_LIG
27 29 1 0 0
SMALL
USER_CHARGES

@<TRIPOS>ATOM
   1 O1     220.7780 152.5186 176.1906   O.2      778 ligands_prepared   0.0000
   2 C2     219.6099 152.8700 176.3278   C.2      778 ligands_prepared   0.0000
   3 C3     219.1203 153.5678 177.5453   C.3      778 ligands_prepared   0.0000
   4 C4     220.0888 153.9170 178.6571   C.3      778 ligands_prepared   0.0000
   5 C5     219.0995 152.8032 178.8540   C.3      778 ligands_prepared   0.0000
   6 N6     218.7196 152.5853 175.3234   N.am     778 ligands_prepared   0.0000
   7 C7     217.3187 153.0422 175.4733   C.3      778 ligands_prepared   0.0000
   8 C8     216.3975 152.2919 174.5007   C.3      778 ligands_prepared   0.0000
   9 C9     216.9250 152.4946 173.0519   C.3      778 ligands_prepared   0.0000
  10 C10    217.9012 151.3226 173.3551   C.3      778 ligands_prepared   0.0000
  11 C11    219.1285 151.8746 174.0962   C.3      778 ligands_prepared   0.0000
  12 N12    216.8954 150.8239 174.4259   N.4      778 ligands_prepared   1.0000
  13 H13    218.2944 154.2670 177.3267   H        778 ligands_prepared   0.0000
  14 H14    221.1482 153.6969 178.5471   H        778 ligands_prepared   0.0000
  15 H15    219.9634 154.8625 179.1885   H        778 ligands_prepared   0.0000
  16 H16    218.2534 152.9345 179.5306   H        778 ligands_prepared   0.0000
  17 H17    219.4443 151.7697 178.8729   H        778 ligands_prepared   0.0000
  18 H18    216.9921 152.8962 176.5334   H        778 ligands_prepared   0.0000
  19 H19    217.2519 154.1414 175.2758   H        778 ligands_prepared   0.0000
  20 H20    215.3197 152.4012 174.7026   H        778 ligands_prepared   0.0000
  21 H21    216.1932 152.2983 172.2570   H        778 ligands_prepared   0.0000
  22 H22    217.3825 153.4650 172.8307   H        778 ligands_prepared   0.0000
  23 H23    218.1291 150.5904 172.5632   H        778 ligands_prepared   0.0000
  24 H24    219.8384 151.0497 174.3537   H        778 ligands_prepared   0.0000
  25 H25    219.6853 152.5678 173.4148   H        778 ligands_prepared   0.0000
  26 H26    216.1926 150.1572 174.0666   H        778 ligands_prepared   0.0000
  27 H27    217.3035 150.4364 175.2884   H        778 ligands_prepared   0.0000
@<TRIPOS>BOND
   1  1  2    2
   2  2  3    1
   3  2  6   am
   4  3  4    1
   5  3  5    1
   6  3 13    1
   7  4  5    1
   8  4 14    1
   9  4 15    1
  10  5 16    1
  11  5 17    1
  12  7  6    1
  13  6 11    1
  14  7  8    1
  15  7 18    1
  16  7 19    1
  17  8  9    1
  18  8 12    1
  19  8 20    1
  20  9 10    1
  21  9 21    1
  22  9 22    1
  23 10 11    1
  24 10 12    1
  25 10 23    1
  26 11 24    1
  27 11 25    1
  28 12 26    1
  29 12 27    1
