@<TRIPOS>MOLECULE
CHEMBL2435284_LIG
56 60 1 0 0
SMALL
USER_CHARGES

@<TRIPOS>ATOM
   1 C1     228.0687 160.1382 169.3965   C.ar     778 ligands_prepared   0.0000
   2 C2     228.5237 158.8242 169.4995   C.ar     778 ligands_prepared   0.0000
   3 C3     228.0403 157.9966 170.5095   C.ar     778 ligands_prepared   0.0000
   4 C4     227.1077 158.4871 171.4248   C.ar     778 ligands_prepared   0.0000
   5 C5     226.5901 157.6001 172.5154   C.3      778 ligands_prepared   0.0000
   6 N6     226.9933 158.0824 173.8971   N.4      778 ligands_prepared   1.0000
   7 C7     228.4898 158.3234 173.9764   C.3      778 ligands_prepared   0.0000
   8 C8     228.8898 158.7463 175.4015   C.3      778 ligands_prepared   0.0000
   9 C9     227.6404 158.8082 176.2967   C.3      778 ligands_prepared   0.0000
  10 C10    226.6351 159.8016 175.6890   C.3      778 ligands_prepared   0.0000
  11 C11    226.2648 159.3628 174.2613   C.3      778 ligands_prepared   0.0000
  12 C12    227.0026 157.4513 176.2845   C.2      778 ligands_prepared   0.0000
  13 C13    226.7791 156.6849 177.3574   C.2      778 ligands_prepared   0.0000
  14 C14    226.1434 155.3640 177.2428   C.ar     778 ligands_prepared   0.0000
  15 C15    226.9123 154.2093 177.4024   C.ar     778 ligands_prepared   0.0000
  16 C16    226.3099 152.9603 177.2729   C.ar     778 ligands_prepared   0.0000
  17 C17    224.9494 152.8662 176.9871   C.ar     778 ligands_prepared   0.0000
  18 C18    224.1843 154.0219 176.8372   C.ar     778 ligands_prepared   0.0000
  19 C19    224.7792 155.2749 176.9657   C.ar     778 ligands_prepared   0.0000
  20 C20    227.1384 157.0791 178.7248   C.ar     778 ligands_prepared   0.0000
  21 C21    227.1658 158.4308 179.0721   C.ar     778 ligands_prepared   0.0000
  22 C22    227.4824 158.8008 180.3764   C.ar     778 ligands_prepared   0.0000
  23 C23    227.7715 157.8249 181.3289   C.ar     778 ligands_prepared   0.0000
  24 C24    227.7471 156.4758 180.9780   C.ar     778 ligands_prepared   0.0000
  25 C25    227.4298 156.0988 179.6765   C.ar     778 ligands_prepared   0.0000
  26 C26    226.6204 157.0062 174.9018   C.3      778 ligands_prepared   0.0000
  27 C27    226.6341 159.7952 171.3069   C.ar     778 ligands_prepared   0.0000
  28 C28    227.1201 160.6214 170.2956   C.ar     778 ligands_prepared   0.0000
  29 H29    228.4553 160.7889 168.6093   H        778 ligands_prepared   0.0000
  30 H30    229.2605 158.4422 168.7908   H        778 ligands_prepared   0.0000
  31 H31    228.3916 156.9654 170.5786   H        778 ligands_prepared   0.0000
  32 H32    226.9547 156.5484 172.3823   H        778 ligands_prepared   0.0000
  33 H33    225.4717 157.5259 172.4738   H        778 ligands_prepared   0.0000
  34 H34    229.0246 157.3960 173.6709   H        778 ligands_prepared   0.0000
  35 H35    228.7702 159.1129 173.2421   H        778 ligands_prepared   0.0000
  36 H36    229.6303 158.0373 175.8210   H        778 ligands_prepared   0.0000
  37 H37    229.3992 159.7308 175.3860   H        778 ligands_prepared   0.0000
  38 H38    227.9216 159.1283 177.3280   H        778 ligands_prepared   0.0000
  39 H39    227.0632 160.8245 175.6831   H        778 ligands_prepared   0.0000
  40 H40    225.7264 159.8674 176.3206   H        778 ligands_prepared   0.0000
  41 H41    225.1670 159.1969 174.1681   H        778 ligands_prepared   0.0000
  42 H42    226.5335 160.1552 173.5269   H        778 ligands_prepared   0.0000
  43 H43    227.9771 154.2899 177.6218   H        778 ligands_prepared   0.0000
  44 H44    226.9088 152.0559 177.3897   H        778 ligands_prepared   0.0000
  45 H45    224.4839 151.8871 176.8740   H        778 ligands_prepared   0.0000
  46 H46    223.1196 153.9486 176.6138   H        778 ligands_prepared   0.0000
  47 H47    224.1870 156.1819 176.8452   H        778 ligands_prepared   0.0000
  48 H48    226.9407 159.1892 178.3215   H        778 ligands_prepared   0.0000
  49 H49    227.5066 159.8558 180.6502   H        778 ligands_prepared   0.0000
  50 H50    228.0182 158.1164 182.3501   H        778 ligands_prepared   0.0000
  51 H51    227.9768 155.7128 181.7219   H        778 ligands_prepared   0.0000
  52 H52    227.4090 155.0461 179.3942   H        778 ligands_prepared   0.0000
  53 H53    227.1350 156.0505 174.6330   H        778 ligands_prepared   0.0000
  54 H54    225.5225 156.8010 174.8371   H        778 ligands_prepared   0.0000
  55 H55    225.8822 160.1753 172.0014   H        778 ligands_prepared   0.0000
  56 H56    226.7563 161.6463 170.2108   H        778 ligands_prepared   0.0000
@<TRIPOS>BOND
   1  1  2   ar
   2  1 28   ar
   3  1 29    1
   4  2  3   ar
   5  2 30    1
   6  3  4   ar
   7  3 31    1
   8  4  5    1
   9  4 27   ar
  10  5 32    1
  11  5 33    1
  12  6  5    1
  13  6  7    1
  14  6 11    1
  15  6 26    1
  16  7  8    1
  17  7 34    1
  18  7 35    1
  19  8  9    1
  20  8 36    1
  21  8 37    1
  22  9 10    1
  23  9 12    1
  24  9 38    1
  25 10 11    1
  26 10 39    1
  27 10 40    1
  28 11 41    1
  29 11 42    1
  30 12 13    2
  31 12 26    1
  32 13 14    1
  33 13 20    1
  34 14 15   ar
  35 14 19   ar
  36 15 16   ar
  37 15 43    1
  38 16 17   ar
  39 16 44    1
  40 17 18   ar
  41 17 45    1
  42 18 19   ar
  43 18 46    1
  44 19 47    1
  45 20 21   ar
  46 20 25   ar
  47 21 22   ar
  48 21 48    1
  49 22 23   ar
  50 22 49    1
  51 23 24   ar
  52 23 50    1
  53 24 25   ar
  54 24 51    1
  55 25 52    1
  56 26 53    1
  57 26 54    1
  58 27 28   ar
  59 27 55    1
  60 28 56    1
