@<TRIPOS>MOLECULE
CHEMBL132966_LIG
27 27 1 0 0
SMALL
USER_CHARGES

@<TRIPOS>ATOM
   1 C1     218.4277 151.0006 173.2981   C.3      778 ligands_prepared   0.0000
   2 N2     217.3011 150.7314 174.2497   N.4      778 ligands_prepared   1.0000
   3 C3     216.4166 151.9524 174.3742   C.3      778 ligands_prepared   0.0000
   4 C4     217.2870 153.1862 174.6247   C.3      778 ligands_prepared   0.0000
   5 C5     217.6935 153.2220 176.0616   C.2      778 ligands_prepared   0.0000
   6 C6     218.9779 153.2457 176.4381   C.2      778 ligands_prepared   0.0000
   7 C7     219.4144 153.3329 177.8235   C.ar     778 ligands_prepared   0.0000
   8 C8     220.7839 153.3501 178.1180   C.ar     778 ligands_prepared   0.0000
   9 C9     221.1982 153.4515 179.4421   C.ar     778 ligands_prepared   0.0000
  10 C10    220.2247 153.5219 180.4458   C.ar     778 ligands_prepared   0.0000
  11 N11    218.9039 153.4947 180.1766   N.ar     778 ligands_prepared   0.0000
  12 C12    218.5063 153.4018 178.8931   C.ar     778 ligands_prepared   0.0000
  13 H13    218.0505 151.2439 172.2882   H        778 ligands_prepared   0.0000
  14 H14    219.0743 150.1063 173.2094   H        778 ligands_prepared   0.0000
  15 H15    219.0571 151.8392 173.6498   H        778 ligands_prepared   0.0000
  16 H16    217.6802 150.4685 175.1869   H        778 ligands_prepared   0.0000
  17 H17    216.7401 149.9138 173.9154   H        778 ligands_prepared   0.0000
  18 H18    215.6932 151.7990 175.2110   H        778 ligands_prepared   0.0000
  19 H19    215.8124 152.0675 173.4437   H        778 ligands_prepared   0.0000
  20 H20    218.1699 153.1883 173.9467   H        778 ligands_prepared   0.0000
  21 H21    216.7332 154.1214 174.3731   H        778 ligands_prepared   0.0000
  22 H22    216.8665 153.2471 176.7755   H        778 ligands_prepared   0.0000
  23 H23    219.7847 153.2228 175.6961   H        778 ligands_prepared   0.0000
  24 H24    221.5182 153.2904 177.3098   H        778 ligands_prepared   0.0000
  25 H25    222.2586 153.4761 179.6951   H        778 ligands_prepared   0.0000
  26 H26    220.5006 153.6037 181.5069   H        778 ligands_prepared   0.0000
  27 H27    217.4221 153.3785 178.7233   H        778 ligands_prepared   0.0000
@<TRIPOS>BOND
   1  1  2    1
   2  1 13    1
   3  1 14    1
   4  1 15    1
   5  2  3    1
   6  2 16    1
   7  2 17    1
   8  3  4    1
   9  3 18    1
  10  3 19    1
  11  4  5    1
  12  4 20    1
  13  4 21    1
  14  5  6    2
  15  5 22    1
  16  6  7    1
  17  6 23    1
  18  7  8   ar
  19  7 12   ar
  20  8  9   ar
  21  8 24    1
  22  9 10   ar
  23  9 25    1
  24 10 11   ar
  25 10 26    1
  26 11 12   ar
  27 12 27    1
