@<TRIPOS>MOLECULE
CHEMBL2180250_LIG
54 58 1 0 0
SMALL
USER_CHARGES

@<TRIPOS>ATOM
   1 C1     227.8013 159.3050 178.7292   C.3      778 ligands_prepared   0.0000
   2 C2     226.9364 158.7435 177.6874   C.2      778 ligands_prepared   0.0000
   3 C3     226.3661 159.3729 176.6137   C.2      778 ligands_prepared   0.0000
   4 C4     226.3480 160.7448 176.1004   C.2      778 ligands_prepared   0.0000
   5 O5     225.6031 161.1042 175.1971   O.2      778 ligands_prepared   0.0000
   6 N6     227.2149 161.6233 176.7011   N.am     778 ligands_prepared   0.0000
   7 C7     227.2558 163.0281 176.3085   C.3      778 ligands_prepared   0.0000
   8 C8     227.7489 163.1856 174.8466   C.3      778 ligands_prepared   0.0000
   9 C9     227.6076 164.6690 174.4770   C.3      778 ligands_prepared   0.0000
  10 C10    228.4386 165.5184 175.4498   C.3      778 ligands_prepared   0.0000
  11 N11    229.2015 164.6258 176.4124   N.4      778 ligands_prepared   1.0000
  12 C12    230.0882 163.6828 175.6175   C.3      778 ligands_prepared   0.0000
  13 C13    229.2241 162.7778 174.7272   C.3      778 ligands_prepared   0.0000
  14 C14    228.2432 163.7882 177.2546   C.3      778 ligands_prepared   0.0000
  15 C15    227.4975 164.6676 178.2618   C.3      778 ligands_prepared   0.0000
  16 C16    227.5844 164.1124 179.6434   C.ar     778 ligands_prepared   0.0000
  17 C17    226.9911 164.7707 180.7247   C.ar     778 ligands_prepared   0.0000
  18 C18    227.0967 164.2195 181.9977   C.ar     778 ligands_prepared   0.0000
  19 C19    227.8051 163.0216 182.1564   C.ar     778 ligands_prepared   0.0000
  20 N20    228.3881 162.3851 181.1204   N.ar     778 ligands_prepared   0.0000
  21 C21    228.2795 162.9190 179.8890   C.ar     778 ligands_prepared   0.0000
  22 O22    225.6143 158.4973 175.8175   O.3      778 ligands_prepared   0.0000
  23 C23    225.7115 157.2725 176.4398   C.ar     778 ligands_prepared   0.0000
  24 C24    225.1040 156.1011 176.0031   C.ar     778 ligands_prepared   0.0000
  25 C25    225.3330 154.9751 176.7835   C.ar     778 ligands_prepared   0.0000
  26 C26    226.1312 155.0287 177.9420   C.ar     778 ligands_prepared   0.0000
  27 C27    226.7275 156.2099 178.3639   C.ar     778 ligands_prepared   0.0000
  28 C28    226.5183 157.3564 177.5999   C.ar     778 ligands_prepared   0.0000
  29 H29    227.2154 159.7333 179.5638   H        778 ligands_prepared   0.0000
  30 H30    228.4621 160.1086 178.3601   H        778 ligands_prepared   0.0000
  31 H31    228.4626 158.5472 179.1861   H        778 ligands_prepared   0.0000
  32 H32    227.8238 161.3347 177.4630   H        778 ligands_prepared   0.0000
  33 H33    226.2197 163.4694 176.3920   H        778 ligands_prepared   0.0000
  34 H34    227.1222 162.5580 174.1679   H        778 ligands_prepared   0.0000
  35 H35    226.5437 164.9848 174.4912   H        778 ligands_prepared   0.0000
  36 H36    227.9378 164.8348 173.4318   H        778 ligands_prepared   0.0000
  37 H37    229.1740 166.1561 174.9040   H        778 ligands_prepared   0.0000
  38 H38    227.7969 166.2192 176.0310   H        778 ligands_prepared   0.0000
  39 H39    229.7873 165.2222 177.0518   H        778 ligands_prepared   0.0000
  40 H40    230.7141 163.0905 176.3249   H        778 ligands_prepared   0.0000
  41 H41    230.8020 164.2912 175.0139   H        778 ligands_prepared   0.0000
  42 H42    229.3674 161.7104 174.9862   H        778 ligands_prepared   0.0000
  43 H43    229.5526 162.8493 173.6686   H        778 ligands_prepared   0.0000
  44 H44    228.8757 163.0434 177.8193   H        778 ligands_prepared   0.0000
  45 H45    227.8480 165.7242 178.2210   H        778 ligands_prepared   0.0000
  46 H46    226.4232 164.7447 177.9492   H        778 ligands_prepared   0.0000
  47 H47    226.4511 165.7108 180.5748   H        778 ligands_prepared   0.0000
  48 H48    226.6388 164.7082 182.8588   H        778 ligands_prepared   0.0000
  49 H49    227.9189 162.5472 183.1415   H        778 ligands_prepared   0.0000
  50 H50    228.7754 162.3653 179.0793   H        778 ligands_prepared   0.0000
  51 H51    224.4870 156.0733 175.1081   H        778 ligands_prepared   0.0000
  52 H52    224.8830 154.0191 176.4950   H        778 ligands_prepared   0.0000
  53 H53    226.2784 154.1159 178.5222   H        778 ligands_prepared   0.0000
  54 H54    227.3404 156.2483 179.2653   H        778 ligands_prepared   0.0000
@<TRIPOS>BOND
   1  1  2    1
   2  1 29    1
   3  1 30    1
   4  1 31    1
   5  2  3    2
   6  2 28    1
   7  3  4    1
   8  3 22    1
   9  4  5    2
  10  4  6   am
  11  6  7    1
  12  6 32    1
  13  7  8    1
  14  7 14    1
  15  7 33    1
  16  8  9    1
  17  8 13    1
  18  8 34    1
  19  9 10    1
  20  9 35    1
  21  9 36    1
  22 10 11    1
  23 10 37    1
  24 10 38    1
  25 11 12    1
  26 11 14    1
  27 11 39    1
  28 12 13    1
  29 12 40    1
  30 12 41    1
  31 13 42    1
  32 13 43    1
  33 14 15    1
  34 14 44    1
  35 15 16    1
  36 15 45    1
  37 15 46    1
  38 16 17   ar
  39 16 21   ar
  40 17 18   ar
  41 17 47    1
  42 18 19   ar
  43 18 48    1
  44 19 20   ar
  45 19 49    1
  46 20 21   ar
  47 21 50    1
  48 22 23    1
  49 23 24   ar
  50 23 28   ar
  51 24 25   ar
  52 24 51    1
  53 25 26   ar
  54 25 52    1
  55 26 27   ar
  56 26 53    1
  57 27 28   ar
  58 27 54    1
