@<TRIPOS>MOLECULE
CHEMBL2179852_LIG
47 50 1 0 0
SMALL
USER_CHARGES

@<TRIPOS>ATOM
   1 O1     221.8897 152.6088 176.5134   O.2      778 ligands_prepared   0.0000
   2 C2     221.9600 153.3300 177.5024   C.2      778 ligands_prepared   0.0000
   3 N3     223.0609 154.1304 177.6794   N.am     778 ligands_prepared   0.0000
   4 C4     224.1117 154.1538 176.6612   C.3      778 ligands_prepared   0.0000
   5 C5     224.8595 152.7986 176.6120   C.3      778 ligands_prepared   0.0000
   6 C6     225.9067 152.9007 175.4941   C.3      778 ligands_prepared   0.0000
   7 C7     226.9441 153.9725 175.8614   C.3      778 ligands_prepared   0.0000
   8 N8     226.5324 154.6897 177.1325   N.4      778 ligands_prepared   1.0000
   9 C9     226.5120 153.6944 178.2797   C.3      778 ligands_prepared   0.0000
  10 C10    225.5779 152.5246 177.9409   C.3      778 ligands_prepared   0.0000
  11 C11    225.1374 155.2909 176.9925   C.3      778 ligands_prepared   0.0000
  12 C12    225.1109 156.3816 175.9173   C.3      778 ligands_prepared   0.0000
  13 C13    225.8824 157.5911 176.3213   C.ar     778 ligands_prepared   0.0000
  14 C14    226.5158 157.6585 177.5641   C.ar     778 ligands_prepared   0.0000
  15 C15    227.2259 158.8075 177.9047   C.ar     778 ligands_prepared   0.0000
  16 C16    227.2898 159.8568 176.9811   C.ar     778 ligands_prepared   0.0000
  17 N17    226.6908 159.7940 175.7735   N.ar     778 ligands_prepared   0.0000
  18 C18    226.0024 158.6844 175.4494   C.ar     778 ligands_prepared   0.0000
  19 C19    220.8807 153.3706 178.5121   C.ar     778 ligands_prepared   0.0000
  20 C20    221.0750 153.6948 179.8559   C.ar     778 ligands_prepared   0.0000
  21 C21    219.9774 153.7170 180.7114   C.ar     778 ligands_prepared   0.0000
  22 C22    218.7142 153.4113 180.1947   C.ar     778 ligands_prepared   0.0000
  23 N23    218.5178 153.0989 178.8944   N.ar     778 ligands_prepared   0.0000
  24 C24    219.5783 153.0807 178.0682   C.ar     778 ligands_prepared   0.0000
  25 H25    223.1695 154.7450 178.4786   H        778 ligands_prepared   0.0000
  26 H26    223.6372 154.3534 175.6579   H        778 ligands_prepared   0.0000
  27 H27    224.1384 151.9750 176.3901   H        778 ligands_prepared   0.0000
  28 H28    226.4011 151.9205 175.3381   H        778 ligands_prepared   0.0000
  29 H29    225.4268 153.1330 174.5212   H        778 ligands_prepared   0.0000
  30 H30    227.0677 154.7166 175.0431   H        778 ligands_prepared   0.0000
  31 H31    227.9518 153.5218 176.0235   H        778 ligands_prepared   0.0000
  32 H32    227.2172 155.4622 177.3411   H        778 ligands_prepared   0.0000
  33 H33    226.1916 154.2211 179.2091   H        778 ligands_prepared   0.0000
  34 H34    227.5529 153.3447 178.4674   H        778 ligands_prepared   0.0000
  35 H35    224.8577 152.3458 178.7634   H        778 ligands_prepared   0.0000
  36 H36    226.1517 151.5763 177.8722   H        778 ligands_prepared   0.0000
  37 H37    224.8833 155.7486 177.9906   H        778 ligands_prepared   0.0000
  38 H38    225.4573 155.9879 174.9347   H        778 ligands_prepared   0.0000
  39 H39    224.0390 156.6516 175.7195   H        778 ligands_prepared   0.0000
  40 H40    226.4645 156.8196 178.2639   H        778 ligands_prepared   0.0000
  41 H41    227.7244 158.8884 178.8715   H        778 ligands_prepared   0.0000
  42 H42    227.8373 160.7835 177.2021   H        778 ligands_prepared   0.0000
  43 H43    225.5355 158.6760 174.4537   H        778 ligands_prepared   0.0000
  44 H44    222.0690 153.9341 180.2462   H        778 ligands_prepared   0.0000
  45 H45    220.1011 153.9684 181.7671   H        778 ligands_prepared   0.0000
  46 H46    217.8157 153.4140 180.8305   H        778 ligands_prepared   0.0000
  47 H47    219.3783 152.8253 177.0146   H        778 ligands_prepared   0.0000
@<TRIPOS>BOND
   1  1  2    2
   2  2  3   am
   3  2 19    1
   4  3  4    1
   5  3 25    1
   6  4  5    1
   7  4 11    1
   8  4 26    1
   9  5  6    1
  10  5 10    1
  11  5 27    1
  12  6  7    1
  13  6 28    1
  14  6 29    1
  15  7  8    1
  16  7 30    1
  17  7 31    1
  18  8  9    1
  19  8 11    1
  20  8 32    1
  21  9 10    1
  22  9 33    1
  23  9 34    1
  24 10 35    1
  25 10 36    1
  26 11 12    1
  27 11 37    1
  28 12 13    1
  29 12 38    1
  30 12 39    1
  31 13 14   ar
  32 13 18   ar
  33 14 15   ar
  34 14 40    1
  35 15 16   ar
  36 15 41    1
  37 16 17   ar
  38 16 42    1
  39 17 18   ar
  40 18 43    1
  41 19 20   ar
  42 19 24   ar
  43 20 21   ar
  44 20 44    1
  45 21 22   ar
  46 21 45    1
  47 22 23   ar
  48 22 46    1
  49 23 24   ar
  50 24 47    1
