@<TRIPOS>MOLECULE
CHEMBL2179874_LIG
45 48 1 0 0
SMALL
USER_CHARGES

@<TRIPOS>ATOM
   1 O1     224.8532 151.2475 177.0621   O.2      778 ligands_prepared   0.0000
   2 C2     224.0933 152.1986 177.1988   C.2      778 ligands_prepared   0.0000
   3 N3     222.7762 152.0132 177.5254   N.am     778 ligands_prepared   0.0000
   4 C4     221.8839 153.1552 177.7246   C.3      778 ligands_prepared   0.0000
   5 C5     221.7559 153.5188 179.2283   C.3      778 ligands_prepared   0.0000
   6 C6     221.0386 152.3939 179.9848   C.3      778 ligands_prepared   0.0000
   7 C7     219.6219 152.2134 179.4191   C.3      778 ligands_prepared   0.0000
   8 N8     219.4195 153.1258 178.2209   N.4      778 ligands_prepared   1.0000
   9 C9     219.5547 154.5712 178.6616   C.3      778 ligands_prepared   0.0000
  10 C10    220.9184 154.7994 179.3297   C.3      778 ligands_prepared   0.0000
  11 C11    220.4725 152.7793 177.1723   C.3      778 ligands_prepared   0.0000
  12 C12    220.1769 153.4914 175.8495   C.3      778 ligands_prepared   0.0000
  13 C13    219.0340 152.8603 175.1267   C.ar     778 ligands_prepared   0.0000
  14 C14    217.7124 153.1007 175.5068   C.ar     778 ligands_prepared   0.0000
  15 C15    216.6791 152.4928 174.7987   C.ar     778 ligands_prepared   0.0000
  16 C16    216.9986 151.6619 173.7196   C.ar     778 ligands_prepared   0.0000
  17 N17    218.2730 151.4347 173.3377   N.ar     778 ligands_prepared   0.0000
  18 C18    219.2686 152.0235 174.0245   C.ar     778 ligands_prepared   0.0000
  19 C19    224.5139 153.5953 177.0553   C.2      778 ligands_prepared   0.0000
  20 C20    224.0492 154.5020 176.1395   C.2      778 ligands_prepared   0.0000
  21 C21    224.6600 155.7924 176.2650   C.2      778 ligands_prepared   0.0000
  22 C22    225.5748 155.8232 177.2773   C.2      778 ligands_prepared   0.0000
  23 I23    226.7471 157.4125 177.8863   I        778 ligands_prepared   0.0000
  24 S24    225.7034 154.3085 178.1006   S.3      778 ligands_prepared   0.0000
  25 H25    222.4180 151.0880 177.7656   H        778 ligands_prepared   0.0000
  26 H26    222.2996 154.0448 177.1694   H        778 ligands_prepared   0.0000
  27 H27    222.7735 153.6842 179.6557   H        778 ligands_prepared   0.0000
  28 H28    220.9959 152.6289 181.0683   H        778 ligands_prepared   0.0000
  29 H29    221.6108 151.4463 179.9247   H        778 ligands_prepared   0.0000
  30 H30    218.8438 152.4511 180.1796   H        778 ligands_prepared   0.0000
  31 H31    219.4356 151.1608 179.1057   H        778 ligands_prepared   0.0000
  32 H32    218.4635 152.9688 177.8093   H        778 ligands_prepared   0.0000
  33 H33    218.7155 154.8078 179.3560   H        778 ligands_prepared   0.0000
  34 H34    219.4186 155.2354 177.7783   H        778 ligands_prepared   0.0000
  35 H35    221.4425 155.6588 178.8657   H        778 ligands_prepared   0.0000
  36 H36    220.7874 155.0847 180.3944   H        778 ligands_prepared   0.0000
  37 H37    220.4053 151.6651 177.0101   H        778 ligands_prepared   0.0000
  38 H38    221.0968 153.4627 175.2091   H        778 ligands_prepared   0.0000
  39 H39    220.0128 154.5828 176.0039   H        778 ligands_prepared   0.0000
  40 H40    217.4872 153.7637 176.3461   H        778 ligands_prepared   0.0000
  41 H41    215.6373 152.6616 175.0776   H        778 ligands_prepared   0.0000
  42 H42    216.2198 151.1557 173.1310   H        778 ligands_prepared   0.0000
  43 H43    220.2894 151.8158 173.6724   H        778 ligands_prepared   0.0000
  44 H44    223.2894 154.2996 175.3888   H        778 ligands_prepared   0.0000
  45 H45    224.3967 156.6142 175.6063   H        778 ligands_prepared   0.0000
@<TRIPOS>BOND
   1  1  2    2
   2  2  3   am
   3  2 19    1
   4  3  4    1
   5  3 25    1
   6  4  5    1
   7  4 11    1
   8  4 26    1
   9  5  6    1
  10  5 10    1
  11  5 27    1
  12  6  7    1
  13  6 28    1
  14  6 29    1
  15  7  8    1
  16  7 30    1
  17  7 31    1
  18  8  9    1
  19  8 11    1
  20  8 32    1
  21  9 10    1
  22  9 33    1
  23  9 34    1
  24 10 35    1
  25 10 36    1
  26 11 12    1
  27 11 37    1
  28 12 13    1
  29 12 38    1
  30 12 39    1
  31 13 14   ar
  32 13 18   ar
  33 14 15   ar
  34 14 40    1
  35 15 16   ar
  36 15 41    1
  37 16 17   ar
  38 16 42    1
  39 17 18   ar
  40 18 43    1
  41 19 20    2
  42 19 24    1
  43 20 21    1
  44 20 44    1
  45 21 22    2
  46 21 45    1
  47 22 23    1
  48 22 24    1
