@<TRIPOS>MOLECULE
CHEMBL2179872_LIG
52 55 1 0 0
SMALL
USER_CHARGES

@<TRIPOS>ATOM
   1 C1     227.1937 156.1019 179.5574   C.3      778 ligands_prepared   0.0000
   2 C2     226.6369 156.5449 178.2647   C.2      778 ligands_prepared   0.0000
   3 C3     226.8088 157.9076 177.8170   C.2      778 ligands_prepared   0.0000
   4 C4     226.2622 158.1560 176.5970   C.2      778 ligands_prepared   0.0000
   5 S5     225.5218 156.7236 175.9496   S.3      778 ligands_prepared   0.0000
   6 C6     225.9468 155.7706 177.3648   C.2      778 ligands_prepared   0.0000
   7 C7     225.5580 154.3878 177.4298   C.2      778 ligands_prepared   0.0000
   8 C8     224.2872 153.9666 177.3245   C.2      778 ligands_prepared   0.0000
   9 C9     223.9729 152.5274 177.3672   C.2      778 ligands_prepared   0.0000
  10 O10    224.8167 151.6444 177.2402   O.2      778 ligands_prepared   0.0000
  11 N11    222.6503 152.1911 177.5283   N.am     778 ligands_prepared   0.0000
  12 C12    221.6368 153.2258 177.7018   C.3      778 ligands_prepared   0.0000
  13 C13    221.4501 153.5724 179.2010   C.3      778 ligands_prepared   0.0000
  14 C14    220.8738 152.3764 179.9677   C.3      778 ligands_prepared   0.0000
  15 C15    219.5349 151.9551 179.3457   C.3      778 ligands_prepared   0.0000
  16 N16    219.1848 152.8775 178.1911   N.4      778 ligands_prepared   1.0000
  17 C17    219.1014 154.3011 178.7083   C.3      778 ligands_prepared   0.0000
  18 C18    220.4567 154.7412 179.2797   C.3      778 ligands_prepared   0.0000
  19 C19    220.2643 152.7430 177.1216   C.3      778 ligands_prepared   0.0000
  20 C20    219.8926 153.5431 175.8685   C.3      778 ligands_prepared   0.0000
  21 C21    218.7832 152.9158 175.0961   C.ar     778 ligands_prepared   0.0000
  22 C22    217.4609 153.3345 175.2591   C.ar     778 ligands_prepared   0.0000
  23 C23    216.4541 152.7225 174.5187   C.ar     778 ligands_prepared   0.0000
  24 C24    216.8022 151.7107 173.6171   C.ar     778 ligands_prepared   0.0000
  25 N25    218.0780 151.3095 173.4407   N.ar     778 ligands_prepared   0.0000
  26 C26    219.0484 151.8993 174.1644   C.ar     778 ligands_prepared   0.0000
  27 H27    227.5287 155.0527 179.5421   H        778 ligands_prepared   0.0000
  28 H28    228.0597 156.7051 179.8753   H        778 ligands_prepared   0.0000
  29 H29    226.4475 156.1795 180.3690   H        778 ligands_prepared   0.0000
  30 H30    227.3272 158.6385 178.4259   H        778 ligands_prepared   0.0000
  31 H31    226.2562 159.0915 176.0553   H        778 ligands_prepared   0.0000
  32 H32    226.3661 153.6488 177.5665   H        778 ligands_prepared   0.0000
  33 H33    223.4445 154.6455 177.1845   H        778 ligands_prepared   0.0000
  34 H34    222.3341 151.2248 177.4827   H        778 ligands_prepared   0.0000
  35 H35    221.9720 154.1547 177.1533   H        778 ligands_prepared   0.0000
  36 H36    222.4314 153.8720 179.6421   H        778 ligands_prepared   0.0000
  37 H37    220.7410 152.6396 181.0381   H        778 ligands_prepared   0.0000
  38 H38    221.5821 151.5240 179.9857   H        778 ligands_prepared   0.0000
  39 H39    219.5680 150.9063 178.9726   H        778 ligands_prepared   0.0000
  40 H40    218.7079 151.9932 180.0927   H        778 ligands_prepared   0.0000
  41 H41    218.2584 152.5983 177.7751   H        778 ligands_prepared   0.0000
  42 H42    218.3016 154.3456 179.4853   H        778 ligands_prepared   0.0000
  43 H43    218.7637 154.9719 177.8884   H        778 ligands_prepared   0.0000
  44 H44    220.3433 155.0779 180.3307   H        778 ligands_prepared   0.0000
  45 H45    220.8431 155.6285 178.7389   H        778 ligands_prepared   0.0000
  46 H46    220.3281 151.6486 176.8636   H        778 ligands_prepared   0.0000
  47 H47    220.8079 153.6333 175.2254   H        778 ligands_prepared   0.0000
  48 H48    219.6580 154.6015 176.1276   H        778 ligands_prepared   0.0000
  49 H49    217.2143 154.1423 175.9547   H        778 ligands_prepared   0.0000
  50 H50    215.4124 153.0247 174.6360   H        778 ligands_prepared   0.0000
  51 H51    216.0455 151.1982 173.0066   H        778 ligands_prepared   0.0000
  52 H52    220.0727 151.5462 173.9793   H        778 ligands_prepared   0.0000
@<TRIPOS>BOND
   1  1  2    1
   2  1 27    1
   3  1 28    1
   4  1 29    1
   5  2  3    1
   6  2  6    2
   7  3  4    2
   8  3 30    1
   9  4  5    1
  10  4 31    1
  11  5  6    1
  12  6  7    1
  13  7  8    2
  14  7 32    1
  15  8  9    1
  16  8 33    1
  17  9 10    2
  18  9 11   am
  19 11 12    1
  20 11 34    1
  21 12 13    1
  22 12 19    1
  23 12 35    1
  24 13 14    1
  25 13 18    1
  26 13 36    1
  27 14 15    1
  28 14 37    1
  29 14 38    1
  30 15 16    1
  31 15 39    1
  32 15 40    1
  33 16 17    1
  34 16 19    1
  35 16 41    1
  36 17 18    1
  37 17 42    1
  38 17 43    1
  39 18 44    1
  40 18 45    1
  41 19 20    1
  42 19 46    1
  43 20 21    1
  44 20 47    1
  45 20 48    1
  46 21 22   ar
  47 21 26   ar
  48 22 23   ar
  49 22 49    1
  50 23 24   ar
  51 23 50    1
  52 24 25   ar
  53 24 51    1
  54 25 26   ar
  55 26 52    1
