@<TRIPOS>MOLECULE
CHEMBL3329541_LIG
30 32 1 0 0
SMALL
USER_CHARGES

@<TRIPOS>ATOM
   1 C1     221.5084 152.9353 178.6737   C.3      778 ligands_prepared   0.0000
   2 C2     220.2125 153.6931 178.7041   C.3      778 ligands_prepared   0.0000
   3 C3     218.9050 152.9436 178.7215   C.3      778 ligands_prepared   0.0000
   4 C4     219.3102 153.7060 177.4756   C.3      778 ligands_prepared   0.0000
   5 C5     219.6974 152.9408 176.2634   C.2      778 ligands_prepared   0.0000
   6 O6     220.8533 152.6019 176.0235   O.2      778 ligands_prepared   0.0000
   7 N7     218.7133 152.5579 175.3868   N.am     778 ligands_prepared   0.0000
   8 C8     217.3172 153.0126 175.5448   C.3      778 ligands_prepared   0.0000
   9 C9     216.4034 152.3649 174.4961   C.3      778 ligands_prepared   0.0000
  10 C10    217.0199 152.5509 173.0787   C.3      778 ligands_prepared   0.0000
  11 C11    217.8862 151.3025 173.4065   C.3      778 ligands_prepared   0.0000
  12 C12    219.1107 151.7380 174.2189   C.3      778 ligands_prepared   0.0000
  13 N13    216.7918 150.8656 174.4159   N.4      778 ligands_prepared   1.0000
  14 H14    222.3093 153.5214 178.1985   H        778 ligands_prepared   0.0000
  15 H15    221.4352 151.9890 178.1169   H        778 ligands_prepared   0.0000
  16 H16    221.8487 152.6845 179.6905   H        778 ligands_prepared   0.0000
  17 H17    220.2845 154.6339 179.2704   H        778 ligands_prepared   0.0000
  18 H18    218.0716 153.3143 179.3163   H        778 ligands_prepared   0.0000
  19 H19    218.9046 151.8553 178.7020   H        778 ligands_prepared   0.0000
  20 H20    218.7634 154.6329 177.2362   H        778 ligands_prepared   0.0000
  21 H21    216.9589 152.7644 176.5756   H        778 ligands_prepared   0.0000
  22 H22    217.2595 154.1253 175.4488   H        778 ligands_prepared   0.0000
  23 H23    215.3272 152.5558 174.6427   H        778 ligands_prepared   0.0000
  24 H24    216.3130 152.4189 172.2473   H        778 ligands_prepared   0.0000
  25 H25    217.5563 153.4882 172.8965   H        778 ligands_prepared   0.0000
  26 H26    218.0963 150.5693 172.6111   H        778 ligands_prepared   0.0000
  27 H27    219.6884 150.8492 174.5830   H        778 ligands_prepared   0.0000
  28 H28    219.8113 152.3148 173.5649   H        778 ligands_prepared   0.0000
  29 H29    217.1237 150.4352 175.2910   H        778 ligands_prepared   0.0000
  30 H30    216.0604 150.2595 174.0090   H        778 ligands_prepared   0.0000
@<TRIPOS>BOND
   1  1  2    1
   2  1 14    1
   3  1 15    1
   4  1 16    1
   5  2  3    1
   6  2  4    1
   7  2 17    1
   8  3  4    1
   9  3 18    1
  10  3 19    1
  11  4  5    1
  12  4 20    1
  13  5  6    2
  14  5  7   am
  15  8  7    1
  16  7 12    1
  17  8  9    1
  18  8 21    1
  19  8 22    1
  20  9 10    1
  21  9 13    1
  22  9 23    1
  23 10 11    1
  24 10 24    1
  25 10 25    1
  26 11 12    1
  27 11 13    1
  28 11 26    1
  29 12 27    1
  30 12 28    1
  31 13 29    1
  32 13 30    1
