@<TRIPOS>MOLECULE
CHEMBL225851_LIG
52 55 1 0 0
SMALL
USER_CHARGES

@<TRIPOS>ATOM
   1 C1     226.7691 162.9232 174.1757   C.3      778 ligands_prepared   0.0000
   2 O2     227.5663 162.8649 175.3540   O.3      778 ligands_prepared   0.0000
   3 C3     227.5317 161.7173 176.0716   C.ar     778 ligands_prepared   0.0000
   4 C4     226.7409 160.6070 175.7923   C.ar     778 ligands_prepared   0.0000
   5 C5     226.8165 159.4813 176.6097   C.ar     778 ligands_prepared   0.0000
   6 C6     227.6540 159.4543 177.7393   C.ar     778 ligands_prepared   0.0000
   7 C7     228.4572 160.5675 178.0042   C.ar     778 ligands_prepared   0.0000
   8 C8     228.4002 161.6878 177.1829   C.ar     778 ligands_prepared   0.0000
   9 O9     229.2936 162.6747 177.4871   O.3      778 ligands_prepared   0.0000
  10 C10    229.6563 162.7719 178.8630   C.3      778 ligands_prepared   0.0000
  11 C11    227.5974 158.2830 178.6170   C.ar     778 ligands_prepared   0.0000
  12 C12    227.9082 158.3208 179.9753   C.ar     778 ligands_prepared   0.0000
  13 O13    228.3718 159.4608 180.5823   O.3      778 ligands_prepared   0.0000
  14 C14    227.3739 160.1057 181.3829   C.3      778 ligands_prepared   0.0000
  15 C15    227.6203 157.2170 180.8041   C.ar     778 ligands_prepared   0.0000
  16 O16    227.8625 157.2396 182.1356   O.3      778 ligands_prepared   0.0000
  17 C17    227.0424 156.0629 180.2958   C.ar     778 ligands_prepared   0.0000
  18 C18    226.7626 156.0047 178.9277   C.ar     778 ligands_prepared   0.0000
  19 C19    227.0861 157.0716 178.0932   C.ar     778 ligands_prepared   0.0000
  20 C20    226.8853 157.0464 176.5976   C.3      778 ligands_prepared   0.0000
  21 C21    226.0133 158.2663 176.2533   C.3      778 ligands_prepared   0.0000
  22 N22    226.3489 155.7126 176.0787   N.4      778 ligands_prepared   1.0000
  23 C23    226.8667 155.5096 174.6781   C.3      778 ligands_prepared   0.0000
  24 C24    224.8489 155.7031 176.0132   C.3      778 ligands_prepared   0.0000
  25 C25    226.6044 154.3995 177.0297   C.3      778 ligands_prepared   0.0000
  26 C26    226.0576 154.8038 178.3945   C.3      778 ligands_prepared   0.0000
  27 H27    225.7061 162.7956 174.4084   H        778 ligands_prepared   0.0000
  28 H28    226.9665 163.9439 173.8149   H        778 ligands_prepared   0.0000
  29 H29    227.1006 162.1850 173.4389   H        778 ligands_prepared   0.0000
  30 H30    226.0706 160.6025 174.9306   H        778 ligands_prepared   0.0000
  31 H31    229.1441 160.5830 178.8512   H        778 ligands_prepared   0.0000
  32 H32    228.9357 163.4154 179.3806   H        778 ligands_prepared   0.0000
  33 H33    230.6479 163.2459 178.8207   H        778 ligands_prepared   0.0000
  34 H34    229.7183 161.7945 179.3501   H        778 ligands_prepared   0.0000
  35 H35    226.9609 159.4212 182.1316   H        778 ligands_prepared   0.0000
  36 H36    226.5707 160.5088 180.7579   H        778 ligands_prepared   0.0000
  37 H37    227.9401 160.9163 181.8633   H        778 ligands_prepared   0.0000
  38 H38    227.5117 156.4139 182.5883   H        778 ligands_prepared   0.0000
  39 H39    226.8028 155.2292 180.9559   H        778 ligands_prepared   0.0000
  40 H40    227.8953 157.1868 176.0943   H        778 ligands_prepared   0.0000
  41 H41    225.0504 158.2546 176.8147   H        778 ligands_prepared   0.0000
  42 H42    225.7242 158.2934 175.1815   H        778 ligands_prepared   0.0000
  43 H43    226.6418 154.4917 174.3119   H        778 ligands_prepared   0.0000
  44 H44    226.4003 156.2245 173.9738   H        778 ligands_prepared   0.0000
  45 H45    227.9613 155.6558 174.6235   H        778 ligands_prepared   0.0000
  46 H46    224.4824 154.7995 175.4875   H        778 ligands_prepared   0.0000
  47 H47    224.3910 155.6920 177.0204   H        778 ligands_prepared   0.0000
  48 H48    224.4608 156.5797 175.4621   H        778 ligands_prepared   0.0000
  49 H49    226.0764 153.4946 176.6429   H        778 ligands_prepared   0.0000
  50 H50    227.6829 154.1216 177.1034   H        778 ligands_prepared   0.0000
  51 H51    224.9602 155.0000 178.2958   H        778 ligands_prepared   0.0000
  52 H52    226.1023 153.9613 179.1238   H        778 ligands_prepared   0.0000
@<TRIPOS>BOND
   1  1  2    1
   2  1 27    1
   3  1 28    1
   4  1 29    1
   5  2  3    1
   6  3  4   ar
   7  3  8   ar
   8  4  5   ar
   9  4 30    1
  10  5  6   ar
  11  5 21    1
  12  6  7   ar
  13  6 11    1
  14  7  8   ar
  15  7 31    1
  16  8  9    1
  17  9 10    1
  18 10 32    1
  19 10 33    1
  20 10 34    1
  21 11 12   ar
  22 11 19   ar
  23 12 13    1
  24 12 15   ar
  25 13 14    1
  26 14 35    1
  27 14 36    1
  28 14 37    1
  29 15 16    1
  30 15 17   ar
  31 16 38    1
  32 17 18   ar
  33 17 39    1
  34 18 19   ar
  35 18 26    1
  36 19 20    1
  37 20 21    1
  38 20 22    1
  39 20 40    1
  40 21 41    1
  41 21 42    1
  42 22 23    1
  43 22 24    1
  44 22 25    1
  45 23 43    1
  46 23 44    1
  47 23 45    1
  48 24 46    1
  49 24 47    1
  50 24 48    1
  51 25 26    1
  52 25 49    1
  53 25 50    1
  54 26 51    1
  55 26 52    1
