@<TRIPOS>MOLECULE
CHEMBL2179857_LIG
47 50 1 0 0
SMALL
USER_CHARGES

@<TRIPOS>ATOM
   1 O1     224.7851 151.0403 176.8842   O.2      778 ligands_prepared   0.0000
   2 C2     224.0882 152.0169 177.1131   C.2      778 ligands_prepared   0.0000
   3 N3     222.7678 151.9267 177.4418   N.am     778 ligands_prepared   0.0000
   4 C4     221.9558 153.1150 177.6970   C.3      778 ligands_prepared   0.0000
   5 C5     221.9716 153.4921 179.2003   C.3      778 ligands_prepared   0.0000
   6 C6     221.1848 154.8021 179.3499   C.3      778 ligands_prepared   0.0000
   7 C7     219.7392 154.5903 178.8761   C.3      778 ligands_prepared   0.0000
   8 N8     219.5399 153.1581 178.4205   N.4      778 ligands_prepared   1.0000
   9 C9     219.8370 152.2244 179.5807   C.3      778 ligands_prepared   0.0000
  10 C10    221.2908 152.4047 180.0412   C.3      778 ligands_prepared   0.0000
  11 C11    220.4814 152.8109 177.2696   C.3      778 ligands_prepared   0.0000
  12 C12    220.1039 153.5803 176.0027   C.3      778 ligands_prepared   0.0000
  13 C13    219.0205 152.8989 175.2380   C.ar     778 ligands_prepared   0.0000
  14 C14    217.6753 153.1038 175.5518   C.ar     778 ligands_prepared   0.0000
  15 C15    216.6949 152.4581 174.8020   C.ar     778 ligands_prepared   0.0000
  16 C16    217.0940 151.6238 173.7509   C.ar     778 ligands_prepared   0.0000
  17 N17    218.3892 151.4251 173.4376   N.ar     778 ligands_prepared   0.0000
  18 C18    219.3348 152.0497 174.1640   C.ar     778 ligands_prepared   0.0000
  19 C19    224.6500 153.4113 177.1177   C.ar     778 ligands_prepared   0.0000
  20 C20    225.7574 153.7083 177.9163   C.ar     778 ligands_prepared   0.0000
  21 C21    226.2502 155.0151 177.8965   C.ar     778 ligands_prepared   0.0000
  22 C22    225.6077 155.9365 177.0818   C.ar     778 ligands_prepared   0.0000
  23 Cl23   226.1553 157.5457 177.0224   Cl       778 ligands_prepared   0.0000
  24 C24    224.5039 155.5663 176.2992   C.ar     778 ligands_prepared   0.0000
  25 N25    224.0327 154.3089 176.3242   N.ar     778 ligands_prepared   0.0000
  26 H26    222.3089 151.0207 177.5589   H        778 ligands_prepared   0.0000
  27 H27    222.3602 153.9821 177.0974   H        778 ligands_prepared   0.0000
  28 H28    223.0256 153.6326 179.5382   H        778 ligands_prepared   0.0000
  29 H29    221.6677 155.6213 178.7792   H        778 ligands_prepared   0.0000
  30 H30    221.2014 155.1401 180.4068   H        778 ligands_prepared   0.0000
  31 H31    219.0100 154.8041 179.6943   H        778 ligands_prepared   0.0000
  32 H32    219.4741 155.2814 178.0460   H        778 ligands_prepared   0.0000
  33 H33    218.5460 153.0221 178.0984   H        778 ligands_prepared   0.0000
  34 H34    219.6307 151.1769 179.2606   H        778 ligands_prepared   0.0000
  35 H35    219.1169 152.4422 180.4034   H        778 ligands_prepared   0.0000
  36 H36    221.3220 152.6811 181.1173   H        778 ligands_prepared   0.0000
  37 H37    221.8450 151.4463 179.9890   H        778 ligands_prepared   0.0000
  38 H38    220.3601 151.7045 177.0801   H        778 ligands_prepared   0.0000
  39 H39    219.8341 154.6370 176.2369   H        778 ligands_prepared   0.0000
  40 H40    221.0157 153.6878 175.3606   H        778 ligands_prepared   0.0000
  41 H41    217.3910 153.7669 176.3729   H        778 ligands_prepared   0.0000
  42 H42    215.6377 152.5998 175.0274   H        778 ligands_prepared   0.0000
  43 H43    216.3575 151.0946 173.1264   H        778 ligands_prepared   0.0000
  44 H44    220.3777 151.8641 173.8677   H        778 ligands_prepared   0.0000
  45 H45    226.2247 152.9424 178.5403   H        778 ligands_prepared   0.0000
  46 H46    227.1176 155.2863 178.5118   H        778 ligands_prepared   0.0000
  47 H47    223.9768 156.2765 175.6396   H        778 ligands_prepared   0.0000
@<TRIPOS>BOND
   1  1  2    2
   2  2  3   am
   3  2 19    1
   4  3  4    1
   5  3 26    1
   6  4  5    1
   7  4 11    1
   8  4 27    1
   9  5  6    1
  10  5 10    1
  11  5 28    1
  12  6  7    1
  13  6 29    1
  14  6 30    1
  15  7  8    1
  16  7 31    1
  17  7 32    1
  18  8  9    1
  19  8 11    1
  20  8 33    1
  21  9 10    1
  22  9 34    1
  23  9 35    1
  24 10 36    1
  25 10 37    1
  26 11 12    1
  27 11 38    1
  28 12 13    1
  29 12 39    1
  30 12 40    1
  31 13 14   ar
  32 13 18   ar
  33 14 15   ar
  34 14 41    1
  35 15 16   ar
  36 15 42    1
  37 16 17   ar
  38 16 43    1
  39 17 18   ar
  40 18 44    1
  41 19 20   ar
  42 19 25   ar
  43 20 21   ar
  44 20 45    1
  45 21 22   ar
  46 21 46    1
  47 22 23    1
  48 22 24   ar
  49 24 25   ar
  50 24 47    1
