@<TRIPOS>MOLECULE
CHEMBL2179970_LIG
30 32 1 0 0
SMALL
USER_CHARGES

@<TRIPOS>ATOM
   1 O1     221.4385 152.4019 176.6276   O.2      778 ligands_prepared   0.0000
   2 C2     220.2667 152.7223 176.8517   C.2      778 ligands_prepared   0.0000
   3 C3     219.8937 153.1273 178.2008   C.2      778 ligands_prepared   0.0000
   4 C4     218.7995 152.8002 178.9644   C.2      778 ligands_prepared   0.0000
   5 C5     218.9433 153.5149 180.2026   C.2      778 ligands_prepared   0.0000
   6 C6     220.1053 154.2347 180.1006   C.2      778 ligands_prepared   0.0000
   7 O7     220.7123 154.0159 178.8863   O.3      778 ligands_prepared   0.0000
   8 N8     219.3765 152.7309 175.8126   N.am     778 ligands_prepared   0.0000
   9 C9     219.7961 152.5102 174.4153   C.3      778 ligands_prepared   0.0000
  10 C10    218.6082 152.2329 173.4752   C.3      778 ligands_prepared   0.0000
  11 C11    217.8491 150.9607 173.9030   C.3      778 ligands_prepared   0.0000
  12 N12    216.8231 151.4334 174.9282   N.4      778 ligands_prepared   1.0000
  13 C13    217.0017 152.9545 175.0309   C.3      778 ligands_prepared   0.0000
  14 C14    217.5603 153.3426 173.6588   C.3      778 ligands_prepared   0.0000
  15 C15    218.0390 153.2806 176.1157   C.3      778 ligands_prepared   0.0000
  16 H16    217.9890 152.1434 178.6994   H        778 ligands_prepared   0.0000
  17 H17    218.2582 153.4720 181.0286   H        778 ligands_prepared   0.0000
  18 H18    220.6486 154.9189 180.7238   H        778 ligands_prepared   0.0000
  19 H19    220.3626 153.4016 174.0477   H        778 ligands_prepared   0.0000
  20 H20    220.4921 151.6336 174.3769   H        778 ligands_prepared   0.0000
  21 H21    218.9736 152.1545 172.4274   H        778 ligands_prepared   0.0000
  22 H22    217.3295 150.4809 173.0451   H        778 ligands_prepared   0.0000
  23 H23    218.5088 150.1880 174.3503   H        778 ligands_prepared   0.0000
  24 H24    216.9705 150.9730 175.8498   H        778 ligands_prepared   0.0000
  25 H25    215.8570 151.1969 174.6242   H        778 ligands_prepared   0.0000
  26 H26    216.0165 153.4249 175.2736   H        778 ligands_prepared   0.0000
  27 H27    216.7906 153.3340 172.8653   H        778 ligands_prepared   0.0000
  28 H28    217.9951 154.3579 173.6390   H        778 ligands_prepared   0.0000
  29 H29    218.1028 154.3919 176.2411   H        778 ligands_prepared   0.0000
  30 H30    217.7019 152.8833 177.1103   H        778 ligands_prepared   0.0000
@<TRIPOS>BOND
   1  1  2    2
   2  2  3    1
   3  2  8   am
   4  3  4    2
   5  3  7    1
   6  4  5    1
   7  4 16    1
   8  5  6    2
   9  5 17    1
  10  6  7    1
  11  6 18    1
  12  9  8    1
  13  8 15    1
  14  9 10    1
  15  9 19    1
  16  9 20    1
  17 10 11    1
  18 10 14    1
  19 10 21    1
  20 11 12    1
  21 11 22    1
  22 11 23    1
  23 12 13    1
  24 12 24    1
  25 12 25    1
  26 13 14    1
  27 13 15    1
  28 13 26    1
  29 14 27    1
  30 14 28    1
  31 15 29    1
  32 15 30    1
