@<TRIPOS>MOLECULE
CHEMBL2177535_LIG
33 35 1 0 0
SMALL
USER_CHARGES

@<TRIPOS>ATOM
   1 N1     218.2116 153.9728 181.3979   N.1      778 ligands_prepared   0.0000
   2 C2     218.7668 153.7075 180.4158   C.1      778 ligands_prepared   0.0000
   3 C3     219.4417 153.3917 179.2135   C.ar     778 ligands_prepared   0.0000
   4 C4     220.8328 153.1736 179.2141   C.ar     778 ligands_prepared   0.0000
   5 N5     221.5059 152.8832 178.0878   N.ar     778 ligands_prepared   0.0000
   6 C6     220.8322 152.8020 176.9256   C.ar     778 ligands_prepared   0.0000
   7 C7     219.4412 153.0012 176.8367   C.ar     778 ligands_prepared   0.0000
   8 C8     218.7697 152.9057 175.5394   C.2      778 ligands_prepared   0.0000
   9 C9     217.5200 153.3632 175.3699   C.2      778 ligands_prepared   0.0000
  10 C10    216.7945 153.2177 174.0676   C.3      778 ligands_prepared   0.0000
  11 C11    215.9958 151.8989 174.0816   C.3      778 ligands_prepared   0.0000
  12 N12    216.9270 150.7167 174.2445   N.4      778 ligands_prepared   1.0000
  13 C13    217.9924 150.7091 173.1730   C.3      778 ligands_prepared   0.0000
  14 C14    218.7744 152.0330 173.1447   C.3      778 ligands_prepared   0.0000
  15 C15    219.5684 152.2712 174.4417   C.3      778 ligands_prepared   0.0000
  16 C16    217.7985 153.1908 172.9062   C.3      778 ligands_prepared   0.0000
  17 C17    218.7395 153.3003 178.0064   C.ar     778 ligands_prepared   0.0000
  18 H18    221.4270 153.2304 180.1419   H        778 ligands_prepared   0.0000
  19 H19    221.4339 152.5678 176.0338   H        778 ligands_prepared   0.0000
  20 H20    216.9585 153.8487 176.1672   H        778 ligands_prepared   0.0000
  21 H21    216.0742 154.0650 173.9264   H        778 ligands_prepared   0.0000
  22 H22    215.4124 151.7807 173.1402   H        778 ligands_prepared   0.0000
  23 H23    215.2572 151.8849 174.9173   H        778 ligands_prepared   0.0000
  24 H24    217.3831 150.7651 175.1830   H        778 ligands_prepared   0.0000
  25 H25    216.3836 149.8248 174.2196   H        778 ligands_prepared   0.0000
  26 H26    217.5116 150.5218 172.1841   H        778 ligands_prepared   0.0000
  27 H27    218.6730 149.8448 173.3593   H        778 ligands_prepared   0.0000
  28 H28    219.5008 151.9751 172.2930   H        778 ligands_prepared   0.0000
  29 H29    220.4430 152.9240 174.2049   H        778 ligands_prepared   0.0000
  30 H30    220.0201 151.3162 174.7921   H        778 ligands_prepared   0.0000
  31 H31    218.3443 154.1535 172.8472   H        778 ligands_prepared   0.0000
  32 H32    217.2808 153.0836 171.9358   H        778 ligands_prepared   0.0000
  33 H33    217.6543 153.4571 177.9814   H        778 ligands_prepared   0.0000
@<TRIPOS>BOND
   1  1  2    3
   2  2  3    1
   3  3  4   ar
   4  3 17   ar
   5  4  5   ar
   6  4 18    1
   7  5  6   ar
   8  6  7   ar
   9  6 19    1
  10  7  8    1
  11  7 17   ar
  12  8  9    2
  13  8 15    1
  14  9 10    1
  15  9 20    1
  16 10 11    1
  17 10 16    1
  18 10 21    1
  19 11 12    1
  20 11 22    1
  21 11 23    1
  22 12 13    1
  23 12 24    1
  24 12 25    1
  25 13 14    1
  26 13 26    1
  27 13 27    1
  28 14 15    1
  29 14 16    1
  30 14 28    1
  31 15 29    1
  32 15 30    1
  33 16 31    1
  34 16 32    1
  35 17 33    1
