@<TRIPOS>MOLECULE
CHEMBL3_ncw_LIG
27 28 1 0 0
SMALL
USER_CHARGES

@<TRIPOS>ATOM
   1 C1     219.3759 151.8975 173.6576   C.3      778 ligands_prepared   0.0000
   2 N2     218.4296 151.9220 174.8134   N.4      778 ligands_prepared   1.0000
   3 C3     216.8790 151.7333 174.2111   C.3      778 ligands_prepared   0.0000
   4 C4     216.3971 153.1838 174.3044   C.3      778 ligands_prepared   0.0000
   5 C5     216.9590 153.6567 175.6515   C.3      778 ligands_prepared   0.0000
   6 C6     218.4476 153.2877 175.5371   C.3      778 ligands_prepared   0.0000
   7 C7     219.1870 153.1835 176.8301   C.ar     778 ligands_prepared   0.0000
   8 C8     220.5304 152.8103 176.9151   C.ar     778 ligands_prepared   0.0000
   9 C9     221.1430 152.7414 178.1635   C.ar     778 ligands_prepared   0.0000
  10 C10    220.3893 153.0455 179.3029   C.ar     778 ligands_prepared   0.0000
  11 N11    219.0877 153.3918 179.2321   N.ar     778 ligands_prepared   0.0000
  12 C12    218.4992 153.4589 178.0252   C.ar     778 ligands_prepared   0.0000
  13 H13    220.4124 152.0766 173.9992   H        778 ligands_prepared   0.0000
  14 H14    219.3543 150.9009 173.1698   H        778 ligands_prepared   0.0000
  15 H15    219.1262 152.6526 172.8894   H        778 ligands_prepared   0.0000
  16 H16    218.7045 151.1685 175.4943   H        778 ligands_prepared   0.0000
  17 H17    216.8238 151.3246 173.1819   H        778 ligands_prepared   0.0000
  18 H18    216.2756 151.0577 174.8598   H        778 ligands_prepared   0.0000
  19 H19    215.2976 153.2659 174.2454   H        778 ligands_prepared   0.0000
  20 H20    216.7920 153.7971 173.4679   H        778 ligands_prepared   0.0000
  21 H21    216.4598 153.1381 176.4941   H        778 ligands_prepared   0.0000
  22 H22    216.8065 154.7359 175.8242   H        778 ligands_prepared   0.0000
  23 H23    218.9483 154.0352 174.8538   H        778 ligands_prepared   0.0000
  24 H24    221.1059 152.5695 176.0150   H        778 ligands_prepared   0.0000
  25 H25    222.1923 152.4548 178.2583   H        778 ligands_prepared   0.0000
  26 H26    220.8281 153.0111 180.3119   H        778 ligands_prepared   0.0000
  27 H27    217.4330 153.7379 178.0264   H        778 ligands_prepared   0.0000
@<TRIPOS>BOND
   1  1  2    1
   2  1 13    1
   3  1 14    1
   4  1 15    1
   5  2  3    1
   6  2  6    1
   7  2 16    1
   8  3  4    1
   9  3 17    1
  10  3 18    1
  11  4  5    1
  12  4 19    1
  13  4 20    1
  14  5  6    1
  15  5 21    1
  16  5 22    1
  17  6  7    1
  18  6 23    1
  19  7  8   ar
  20  7 12   ar
  21  8  9   ar
  22  8 24    1
  23  9 10   ar
  24  9 25    1
  25 10 11   ar
  26 10 26    1
  27 11 12   ar
  28 12 27    1
