@<TRIPOS>MOLECULE
CHEMBL2177540_ncw_LIG
35 37 1 0 0
SMALL
USER_CHARGES

@<TRIPOS>ATOM
   1 C1     216.4619 149.4569 174.2020   C.3      778 ligands_prepared   0.0000
   2 N2     217.1299 150.7894 174.3457   N.4      778 ligands_prepared   1.0000
   3 C3     216.0996 151.8993 174.2700   C.3      778 ligands_prepared   0.0000
   4 C4     216.7935 153.2711 174.3926   C.3      778 ligands_prepared   0.0000
   5 C5     217.5101 153.3541 175.7044   C.2      778 ligands_prepared   0.0000
   6 C6     218.7954 152.9883 175.8344   C.2      778 ligands_prepared   0.0000
   7 C7     219.4714 153.0680 177.1307   C.ar     778 ligands_prepared   0.0000
   8 C8     218.7674 153.4033 178.2899   C.ar     778 ligands_prepared   0.0000
   9 C9     219.4440 153.4789 179.5017   C.ar     778 ligands_prepared   0.0000
  10 C10    220.8176 153.2128 179.5211   C.ar     778 ligands_prepared   0.0000
  11 N11    221.5054 152.8713 178.4100   N.ar     778 ligands_prepared   0.0000
  12 C12    220.8464 152.7997 177.2397   C.ar     778 ligands_prepared   0.0000
  13 C13    219.6352 152.5150 174.6870   C.3      778 ligands_prepared   0.0000
  14 C14    218.8572 152.3412 173.3704   C.3      778 ligands_prepared   0.0000
  15 C15    217.7926 153.4364 173.2374   C.3      778 ligands_prepared   0.0000
  16 C16    218.1776 150.9635 173.2662   C.3      778 ligands_prepared   0.0000
  17 H17    215.7111 149.3069 175.0025   H        778 ligands_prepared   0.0000
  18 H18    215.9490 149.3558 173.2292   H        778 ligands_prepared   0.0000
  19 H19    217.1993 148.6373 174.2878   H        778 ligands_prepared   0.0000
  20 H20    217.6100 150.8413 175.2857   H        778 ligands_prepared   0.0000
  21 H21    215.5388 151.8290 173.3103   H        778 ligands_prepared   0.0000
  22 H22    215.3535 151.7578 175.0859   H        778 ligands_prepared   0.0000
  23 H23    216.0086 154.0692 174.3317   H        778 ligands_prepared   0.0000
  24 H24    216.9179 153.7185 176.5421   H        778 ligands_prepared   0.0000
  25 H25    217.6922 153.6072 178.2374   H        778 ligands_prepared   0.0000
  26 H26    218.9186 153.7403 180.4220   H        778 ligands_prepared   0.0000
  27 H27    221.4043 153.2696 180.4496   H        778 ligands_prepared   0.0000
  28 H28    221.4448 152.5108 176.3635   H        778 ligands_prepared   0.0000
  29 H29    220.4578 153.2547 174.5283   H        778 ligands_prepared   0.0000
  30 H30    220.1638 151.5710 174.9386   H        778 ligands_prepared   0.0000
  31 H31    219.5842 152.4179 172.5193   H        778 ligands_prepared   0.0000
  32 H32    218.2591 154.4406 173.2699   H        778 ligands_prepared   0.0000
  33 H33    217.2820 153.3756 172.2594   H        778 ligands_prepared   0.0000
  34 H34    218.9254 150.1409 173.3563   H        778 ligands_prepared   0.0000
  35 H35    217.7019 150.8445 172.2632   H        778 ligands_prepared   0.0000
@<TRIPOS>BOND
   1  1  2    1
   2  1 17    1
   3  1 18    1
   4  1 19    1
   5  3  2    1
   6  2 16    1
   7  2 20    1
   8  3  4    1
   9  3 21    1
  10  3 22    1
  11  4  5    1
  12  4 15    1
  13  4 23    1
  14  5  6    2
  15  5 24    1
  16  6  7    1
  17  6 13    1
  18  7  8   ar
  19  7 12   ar
  20  8  9   ar
  21  8 25    1
  22  9 10   ar
  23  9 26    1
  24 10 11   ar
  25 10 27    1
  26 11 12   ar
  27 12 28    1
  28 13 14    1
  29 13 29    1
  30 13 30    1
  31 14 15    1
  32 14 16    1
  33 14 31    1
  34 15 32    1
  35 15 33    1
  36 16 34    1
  37 16 35    1
