@<TRIPOS>MOLECULE
CHEMBL2332276_LIG
45 48 1 0 0
SMALL
USER_CHARGES

@<TRIPOS>ATOM
   1 C1     227.7971 157.6919 180.8654   C.ar     778 ligands_prepared   0.0000
   2 C2     227.5063 158.6842 179.9340   C.ar     778 ligands_prepared   0.0000
   3 C3     226.9455 158.3472 178.7034   C.ar     778 ligands_prepared   0.0000
   4 C4     226.6628 157.0167 178.3998   C.ar     778 ligands_prepared   0.0000
   5 C5     226.0793 156.5571 177.0892   C.3      778 ligands_prepared   0.0000
   6 C6     225.8503 155.0704 177.0085   C.ar     778 ligands_prepared   0.0000
   7 C7     226.8736 154.1245 176.9926   C.ar     778 ligands_prepared   0.0000
   8 C8     226.5729 152.7647 176.9369   C.ar     778 ligands_prepared   0.0000
   9 C9     225.2460 152.3416 176.9060   C.ar     778 ligands_prepared   0.0000
  10 C10    224.2179 153.2822 176.9421   C.ar     778 ligands_prepared   0.0000
  11 C11    224.5180 154.6393 176.9909   C.ar     778 ligands_prepared   0.0000
  12 N12    226.8721 157.0946 175.8744   N.4      778 ligands_prepared   1.0000
  13 C13    228.3549 156.9218 176.1448   C.3      778 ligands_prepared   0.0000
  14 C14    229.1886 157.5302 175.0035   C.3      778 ligands_prepared   0.0000
  15 N15    228.2842 158.1133 173.9488   N.4      778 ligands_prepared   1.0000
  16 C16    227.4230 159.1770 174.5810   C.3      778 ligands_prepared   0.0000
  17 C17    226.5839 158.5761 175.7234   C.3      778 ligands_prepared   0.0000
  18 C18    227.3907 157.0205 173.4221   C.3      778 ligands_prepared   0.0000
  19 C19    226.5505 156.4180 174.5657   C.3      778 ligands_prepared   0.0000
  20 C20    226.9685 156.0207 179.3359   C.ar     778 ligands_prepared   0.0000
  21 C21    227.5357 156.3566 180.5608   C.ar     778 ligands_prepared   0.0000
  22 H22    228.2308 157.9582 181.8324   H        778 ligands_prepared   0.0000
  23 H23    227.7147 159.7332 180.1597   H        778 ligands_prepared   0.0000
  24 H24    226.7407 159.1458 177.9866   H        778 ligands_prepared   0.0000
  25 H25    225.0585 157.0633 176.9776   H        778 ligands_prepared   0.0000
  26 H26    227.9226 154.4256 177.0297   H        778 ligands_prepared   0.0000
  27 H27    227.3863 152.0354 176.9186   H        778 ligands_prepared   0.0000
  28 H28    225.0117 151.2752 176.8549   H        778 ligands_prepared   0.0000
  29 H29    223.1749 152.9590 176.9303   H        778 ligands_prepared   0.0000
  30 H30    223.7031 155.3687 177.0186   H        778 ligands_prepared   0.0000
  31 H31    228.5896 155.8341 176.2676   H        778 ligands_prepared   0.0000
  32 H32    228.6205 157.3990 177.1214   H        778 ligands_prepared   0.0000
  33 H33    229.8593 156.7630 174.5390   H        778 ligands_prepared   0.0000
  34 H34    229.8793 158.3235 175.3869   H        778 ligands_prepared   0.0000
  35 H35    228.8592 158.5292 173.1594   H        778 ligands_prepared   0.0000
  36 H36    228.0694 160.0124 174.9519   H        778 ligands_prepared   0.0000
  37 H37    226.7683 159.6411 173.7994   H        778 ligands_prepared   0.0000
  38 H38    225.4924 158.7286 175.5308   H        778 ligands_prepared   0.0000
  39 H39    226.7978 159.1047 176.6854   H        778 ligands_prepared   0.0000
  40 H40    228.0128 156.2335 172.9231   H        778 ligands_prepared   0.0000
  41 H41    226.7337 157.4291 172.6127   H        778 ligands_prepared   0.0000
  42 H42    226.7489 155.3195 174.6422   H        778 ligands_prepared   0.0000
  43 H43    225.4622 156.5305 174.3334   H        778 ligands_prepared   0.0000
  44 H44    226.7659 154.9705 179.1077   H        778 ligands_prepared   0.0000
  45 H45    227.7717 155.5699 181.2810   H        778 ligands_prepared   0.0000
@<TRIPOS>BOND
   1  1  2   ar
   2  1 21   ar
   3  1 22    1
   4  2  3   ar
   5  2 23    1
   6  3  4   ar
   7  3 24    1
   8  4  5    1
   9  4 20   ar
  10  5  6    1
  11  5 25    1
  12  6  7   ar
  13  6 11   ar
  14  7  8   ar
  15  7 26    1
  16  8  9   ar
  17  8 27    1
  18  9 10   ar
  19  9 28    1
  20 10 11   ar
  21 10 29    1
  22 11 30    1
  23 12  5    1
  24 12 13    1
  25 12 17    1
  26 12 19    1
  27 13 14    1
  28 13 31    1
  29 13 32    1
  30 14 15    1
  31 14 33    1
  32 14 34    1
  33 15 16    1
  34 15 18    1
  35 15 35    1
  36 16 17    1
  37 16 36    1
  38 16 37    1
  39 17 38    1
  40 17 39    1
  41 18 19    1
  42 18 40    1
  43 18 41    1
  44 19 42    1
  45 19 43    1
  46 20 21   ar
  47 20 44    1
  48 21 45    1
