@<TRIPOS>MOLECULE
CHEMBL2179875_LIG
55 59 1 0 0
SMALL
USER_CHARGES

@<TRIPOS>ATOM
   1 O1     224.7161 151.2541 176.9090   O.2      778 ligands_prepared   0.0000
   2 C2     223.9839 152.2194 177.0897   C.2      778 ligands_prepared   0.0000
   3 N3     222.6479 152.0628 177.3558   N.am     778 ligands_prepared   0.0000
   4 C4     221.7689 153.2016 177.6040   C.3      778 ligands_prepared   0.0000
   5 C5     221.7315 153.5573 179.1145   C.3      778 ligands_prepared   0.0000
   6 C6     220.8825 154.8255 179.2694   C.3      778 ligands_prepared   0.0000
   7 C7     219.4673 154.5610 178.7347   C.3      778 ligands_prepared   0.0000
   8 N8     219.3400 153.1236 178.2670   N.4      778 ligands_prepared   1.0000
   9 C9     219.6465 152.1961 179.4301   C.3      778 ligands_prepared   0.0000
  10 C10    221.0850 152.4205 179.9163   C.3      778 ligands_prepared   0.0000
  11 C11    220.3256 152.8256 177.1392   C.3      778 ligands_prepared   0.0000
  12 C12    219.9362 153.5732 175.8610   C.3      778 ligands_prepared   0.0000
  13 C13    218.8582 152.8684 175.1087   C.ar     778 ligands_prepared   0.0000
  14 C14    219.1644 151.9508 174.1019   C.ar     778 ligands_prepared   0.0000
  15 C15    218.1283 151.3203 173.4168   C.ar     778 ligands_prepared   0.0000
  16 C16    216.8089 151.6260 173.7641   C.ar     778 ligands_prepared   0.0000
  17 N17    216.5038 152.4950 174.7491   N.ar     778 ligands_prepared   0.0000
  18 C18    217.5070 153.0998 175.4111   C.ar     778 ligands_prepared   0.0000
  19 C19    224.4353 153.6123 177.0404   C.2      778 ligands_prepared   0.0000
  20 C20    224.1320 154.5401 176.0820   C.2      778 ligands_prepared   0.0000
  21 C21    224.8000 155.7919 176.2864   C.2      778 ligands_prepared   0.0000
  22 C22    225.6036 155.7961 177.3910   C.2      778 ligands_prepared   0.0000
  23 C23    226.4894 156.8458 177.8543   C.ar     778 ligands_prepared   0.0000
  24 C24    227.2044 156.6460 179.0400   C.ar     778 ligands_prepared   0.0000
  25 C25    228.0492 157.6442 179.5151   C.ar     778 ligands_prepared   0.0000
  26 C26    228.1889 158.8359 178.8065   C.ar     778 ligands_prepared   0.0000
  27 C27    227.4825 159.0306 177.6208   C.ar     778 ligands_prepared   0.0000
  28 C28    226.6329 158.0370 177.1402   C.ar     778 ligands_prepared   0.0000
  29 S29    225.5148 154.2650 178.2344   S.3      778 ligands_prepared   0.0000
  30 H30    222.2453 151.1316 177.4774   H        778 ligands_prepared   0.0000
  31 H31    222.1421 154.0970 177.0296   H        778 ligands_prepared   0.0000
  32 H32    222.7703 153.7394 179.4798   H        778 ligands_prepared   0.0000
  33 H33    220.8440 155.1325 180.3348   H        778 ligands_prepared   0.0000
  34 H34    221.3454 155.6822 178.7404   H        778 ligands_prepared   0.0000
  35 H35    219.2107 155.2435 177.8940   H        778 ligands_prepared   0.0000
  36 H36    218.6970 154.7439 179.5229   H        778 ligands_prepared   0.0000
  37 H37    218.3620 152.9504 177.9172   H        778 ligands_prepared   0.0000
  38 H38    219.4800 151.1428 179.1073   H        778 ligands_prepared   0.0000
  39 H39    218.9060 152.3889 180.2399   H        778 ligands_prepared   0.0000
  40 H40    221.6790 151.4880 179.8366   H        778 ligands_prepared   0.0000
  41 H41    221.0930 152.6632 180.9995   H        778 ligands_prepared   0.0000
  42 H42    220.2626 151.7165 176.9456   H        778 ligands_prepared   0.0000
  43 H43    219.6565 154.6297 176.0798   H        778 ligands_prepared   0.0000
  44 H44    220.8449 153.6809 175.2139   H        778 ligands_prepared   0.0000
  45 H45    220.2037 151.7207 173.8547   H        778 ligands_prepared   0.0000
  46 H46    218.3394 150.6028 172.6234   H        778 ligands_prepared   0.0000
  47 H47    215.9552 151.1643 173.2468   H        778 ligands_prepared   0.0000
  48 H48    217.2076 153.7916 176.2125   H        778 ligands_prepared   0.0000
  49 H49    223.4664 154.3732 175.2405   H        778 ligands_prepared   0.0000
  50 H50    224.6786 156.6265 175.6053   H        778 ligands_prepared   0.0000
  51 H51    227.0986 155.7068 179.5854   H        778 ligands_prepared   0.0000
  52 H52    228.6014 157.4910 180.4437   H        778 ligands_prepared   0.0000
  53 H53    228.8566 159.6148 179.1797   H        778 ligands_prepared   0.0000
  54 H54    227.5952 159.9641 177.0670   H        778 ligands_prepared   0.0000
  55 H55    226.0882 158.1862 176.2063   H        778 ligands_prepared   0.0000
@<TRIPOS>BOND
   1  1  2    2
   2  2  3   am
   3  2 19    1
   4  3  4    1
   5  3 30    1
   6  4  5    1
   7  4 11    1
   8  4 31    1
   9  5  6    1
  10  5 10    1
  11  5 32    1
  12  6  7    1
  13  6 33    1
  14  6 34    1
  15  7  8    1
  16  7 35    1
  17  7 36    1
  18  8  9    1
  19  8 11    1
  20  8 37    1
  21  9 10    1
  22  9 38    1
  23  9 39    1
  24 10 40    1
  25 10 41    1
  26 11 12    1
  27 11 42    1
  28 12 13    1
  29 12 43    1
  30 12 44    1
  31 13 14   ar
  32 13 18   ar
  33 14 15   ar
  34 14 45    1
  35 15 16   ar
  36 15 46    1
  37 16 17   ar
  38 16 47    1
  39 17 18   ar
  40 18 48    1
  41 19 20    2
  42 19 29    1
  43 20 21    1
  44 20 49    1
  45 21 22    2
  46 21 50    1
  47 22 23    1
  48 22 29    1
  49 23 24   ar
  50 23 28   ar
  51 24 25   ar
  52 24 51    1
  53 25 26   ar
  54 25 52    1
  55 26 27   ar
  56 26 53    1
  57 27 28   ar
  58 27 54    1
  59 28 55    1
