@<TRIPOS>MOLECULE
CHEMBL2179861_LIG
53 57 1 0 0
SMALL
USER_CHARGES

@<TRIPOS>ATOM
   1 O1     223.3132 152.2307 176.9866   O.2      778 ligands_prepared   0.0000
   2 C2     222.8766 153.2691 177.4551   C.2      778 ligands_prepared   0.0000
   3 N3     223.5120 154.4682 177.3135   N.am     778 ligands_prepared   0.0000
   4 C4     224.7802 154.5758 176.5955   C.3      778 ligands_prepared   0.0000
   5 C5     225.8396 153.6041 177.1780   C.3      778 ligands_prepared   0.0000
   6 C6     226.2046 154.0044 178.6122   C.3      778 ligands_prepared   0.0000
   7 C7     226.7817 155.4258 178.6203   C.3      778 ligands_prepared   0.0000
   8 N8     226.7549 156.0094 177.2179   N.4      778 ligands_prepared   1.0000
   9 C9     227.6096 155.1522 176.3049   C.3      778 ligands_prepared   0.0000
  10 C10    227.0946 153.7043 176.3002   C.3      778 ligands_prepared   0.0000
  11 C11    225.3099 156.0416 176.7295   C.3      778 ligands_prepared   0.0000
  12 C12    225.1948 156.7850 175.3938   C.3      778 ligands_prepared   0.0000
  13 C13    226.0847 157.9797 175.3334   C.ar     778 ligands_prepared   0.0000
  14 C14    226.0007 158.9890 176.2946   C.ar     778 ligands_prepared   0.0000
  15 C15    226.8489 160.0891 176.2036   C.ar     778 ligands_prepared   0.0000
  16 C16    227.7634 160.1471 175.1465   C.ar     778 ligands_prepared   0.0000
  17 N17    227.8607 159.1698 174.2218   N.ar     778 ligands_prepared   0.0000
  18 C18    227.0433 158.1053 174.3161   C.ar     778 ligands_prepared   0.0000
  19 C19    221.5598 153.3193 178.1829   C.ar     778 ligands_prepared   0.0000
  20 N20    221.6212 153.4233 179.4996   N.ar     778 ligands_prepared   0.0000
  21 C21    220.4489 153.4603 180.2084   C.ar     778 ligands_prepared   0.0000
  22 C22    219.2155 153.3992 179.5986   C.ar     778 ligands_prepared   0.0000
  23 C23    219.1408 153.2854 178.1854   C.ar     778 ligands_prepared   0.0000
  24 C24    217.8995 153.2125 177.4975   C.ar     778 ligands_prepared   0.0000
  25 C25    217.8743 153.0934 176.1325   C.ar     778 ligands_prepared   0.0000
  26 C26    219.0835 153.0431 175.3911   C.ar     778 ligands_prepared   0.0000
  27 C27    220.2937 153.1161 176.0284   C.ar     778 ligands_prepared   0.0000
  28 C28    220.3448 153.2387 177.4423   C.ar     778 ligands_prepared   0.0000
  29 H29    223.1591 155.3136 177.7639   H        778 ligands_prepared   0.0000
  30 H30    224.6158 154.3244 175.5073   H        778 ligands_prepared   0.0000
  31 H31    225.4398 152.5620 177.1601   H        778 ligands_prepared   0.0000
  32 H32    226.9401 153.2862 179.0329   H        778 ligands_prepared   0.0000
  33 H33    225.3308 153.9284 179.2891   H        778 ligands_prepared   0.0000
  34 H34    226.2152 156.1005 179.3033   H        778 ligands_prepared   0.0000
  35 H35    227.8344 155.4352 178.9871   H        778 ligands_prepared   0.0000
  36 H36    227.1306 156.9928 177.2344   H        778 ligands_prepared   0.0000
  37 H37    228.6667 155.2057 176.6559   H        778 ligands_prepared   0.0000
  38 H38    227.6062 155.5917 175.2820   H        778 ligands_prepared   0.0000
  39 H39    226.8857 153.3675 175.2650   H        778 ligands_prepared   0.0000
  40 H40    227.8791 153.0141 176.6733   H        778 ligands_prepared   0.0000
  41 H41    224.7194 156.5975 177.5128   H        778 ligands_prepared   0.0000
  42 H42    225.3840 156.0990 174.5349   H        778 ligands_prepared   0.0000
  43 H43    224.1283 157.0932 175.2428   H        778 ligands_prepared   0.0000
  44 H44    225.2831 158.9171 177.1170   H        778 ligands_prepared   0.0000
  45 H45    226.8043 160.8911 176.9424   H        778 ligands_prepared   0.0000
  46 H46    228.4489 160.9984 175.0249   H        778 ligands_prepared   0.0000
  47 H47    227.1695 157.3280 173.5479   H        778 ligands_prepared   0.0000
  48 H48    220.5692 153.5457 181.2966   H        778 ligands_prepared   0.0000
  49 H49    218.2938 153.4377 180.1856   H        778 ligands_prepared   0.0000
  50 H50    216.9750 153.2543 178.0783   H        778 ligands_prepared   0.0000
  51 H51    216.9247 153.0351 175.5943   H        778 ligands_prepared   0.0000
  52 H52    219.0311 152.9462 174.3032   H        778 ligands_prepared   0.0000
  53 H53    221.2252 153.0755 175.4610   H        778 ligands_prepared   0.0000
@<TRIPOS>BOND
   1  1  2    2
   2  2  3   am
   3  2 19    1
   4  3  4    1
   5  3 29    1
   6  4  5    1
   7  4 11    1
   8  4 30    1
   9  5  6    1
  10  5 10    1
  11  5 31    1
  12  6  7    1
  13  6 32    1
  14  6 33    1
  15  7  8    1
  16  7 34    1
  17  7 35    1
  18  8  9    1
  19  8 11    1
  20  8 36    1
  21  9 10    1
  22  9 37    1
  23  9 38    1
  24 10 39    1
  25 10 40    1
  26 11 12    1
  27 11 41    1
  28 12 13    1
  29 12 42    1
  30 12 43    1
  31 13 14   ar
  32 13 18   ar
  33 14 15   ar
  34 14 44    1
  35 15 16   ar
  36 15 45    1
  37 16 17   ar
  38 16 46    1
  39 17 18   ar
  40 18 47    1
  41 19 20   ar
  42 19 28   ar
  43 20 21   ar
  44 21 22   ar
  45 21 48    1
  46 22 23   ar
  47 22 49    1
  48 23 24   ar
  49 23 28   ar
  50 24 25   ar
  51 24 50    1
  52 25 26   ar
  53 25 51    1
  54 26 27   ar
  55 26 52    1
  56 27 28   ar
  57 27 53    1
