@<TRIPOS>MOLECULE
CHEMBL388341_LIG
49 52 1 0 0
SMALL
USER_CHARGES

@<TRIPOS>ATOM
   1 C1     229.0718 162.8023 177.1074   C.3      778 ligands_prepared   0.0000
   2 O2     228.0093 162.5141 176.2037   O.3      778 ligands_prepared   0.0000
   3 C3     227.3949 161.3056 176.3567   C.ar     778 ligands_prepared   0.0000
   4 C4     227.7509 160.3294 177.2763   C.ar     778 ligands_prepared   0.0000
   5 C5     227.0613 159.1134 177.3096   C.ar     778 ligands_prepared   0.0000
   6 C6     226.0533 158.8695 176.3581   C.ar     778 ligands_prepared   0.0000
   7 C7     225.6802 159.8484 175.4391   C.ar     778 ligands_prepared   0.0000
   8 C8     226.3444 161.0712 175.4473   C.ar     778 ligands_prepared   0.0000
   9 O9     225.9404 161.9872 174.5354   O.3      778 ligands_prepared   0.0000
  10 C10    225.3974 157.5224 176.3005   C.3      778 ligands_prepared   0.0000
  11 C11    226.4919 156.4917 176.6340   C.3      778 ligands_prepared   0.0000
  12 C12    226.9110 156.7615 178.0574   C.ar     778 ligands_prepared   0.0000
  13 C13    226.8757 155.8006 179.0630   C.ar     778 ligands_prepared   0.0000
  14 C14    227.3430 156.0974 180.3461   C.ar     778 ligands_prepared   0.0000
  15 C15    227.8091 157.3794 180.6018   C.ar     778 ligands_prepared   0.0000
  16 O16    228.2374 157.6276 181.8604   O.3      778 ligands_prepared   0.0000
  17 C17    227.8041 158.3737 179.6021   C.ar     778 ligands_prepared   0.0000
  18 O18    228.1682 159.6455 179.9663   O.3      778 ligands_prepared   0.0000
  19 C19    227.2228 160.2655 180.8461   C.3      778 ligands_prepared   0.0000
  20 C20    227.3104 158.0915 178.3304   C.ar     778 ligands_prepared   0.0000
  21 C21    226.2880 154.4528 178.8135   C.3      778 ligands_prepared   0.0000
  22 C22    226.5611 154.1554 177.5274   C.3      778 ligands_prepared   0.0000
  23 N23    226.0979 155.0369 176.3873   N.4      778 ligands_prepared   1.0000
  24 C24    224.6124 154.8831 176.2365   C.3      778 ligands_prepared   0.0000
  25 C25    226.7353 154.5911 175.0962   C.3      778 ligands_prepared   0.0000
  26 H26    229.2658 163.8666 176.9080   H        778 ligands_prepared   0.0000
  27 H27    228.7665 162.6561 178.1483   H        778 ligands_prepared   0.0000
  28 H28    229.9551 162.2022 176.8634   H        778 ligands_prepared   0.0000
  29 H29    228.5756 160.5121 177.9647   H        778 ligands_prepared   0.0000
  30 H30    224.8872 159.6661 174.7115   H        778 ligands_prepared   0.0000
  31 H31    226.5841 162.0557 173.7706   H        778 ligands_prepared   0.0000
  32 H32    224.5489 157.4660 177.0191   H        778 ligands_prepared   0.0000
  33 H33    224.9466 157.3529 175.2998   H        778 ligands_prepared   0.0000
  34 H34    227.3779 156.6912 175.9505   H        778 ligands_prepared   0.0000
  35 H35    227.3285 155.3467 181.1379   H        778 ligands_prepared   0.0000
  36 H36    227.6352 157.2083 182.5466   H        778 ligands_prepared   0.0000
  37 H37    227.0770 159.6719 181.7549   H        778 ligands_prepared   0.0000
  38 H38    226.2620 160.4236 180.3465   H        778 ligands_prepared   0.0000
  39 H39    227.7065 161.2255 181.0764   H        778 ligands_prepared   0.0000
  40 H40    225.1994 154.4407 179.0750   H        778 ligands_prepared   0.0000
  41 H41    226.7269 153.6969 179.5059   H        778 ligands_prepared   0.0000
  42 H42    227.6728 154.0542 177.4918   H        778 ligands_prepared   0.0000
  43 H43    226.1487 153.1283 177.3775   H        778 ligands_prepared   0.0000
  44 H44    224.3539 153.8605 175.8962   H        778 ligands_prepared   0.0000
  45 H45    224.2085 155.5881 175.4854   H        778 ligands_prepared   0.0000
  46 H46    224.0817 155.0440 177.1940   H        778 ligands_prepared   0.0000
  47 H47    226.6069 153.5042 174.9431   H        778 ligands_prepared   0.0000
  48 H48    226.2787 155.1066 174.2301   H        778 ligands_prepared   0.0000
  49 H49    227.8185 154.8116 175.0793   H        778 ligands_prepared   0.0000
@<TRIPOS>BOND
   1  1  2    1
   2  1 26    1
   3  1 27    1
   4  1 28    1
   5  2  3    1
   6  3  4   ar
   7  3  8   ar
   8  4  5   ar
   9  4 29    1
  10  5  6   ar
  11  5 20    1
  12  6  7   ar
  13  6 10    1
  14  7  8   ar
  15  7 30    1
  16  8  9    1
  17  9 31    1
  18 10 11    1
  19 10 32    1
  20 10 33    1
  21 11 12    1
  22 11 23    1
  23 11 34    1
  24 12 13   ar
  25 12 20   ar
  26 13 14   ar
  27 13 21    1
  28 14 15   ar
  29 14 35    1
  30 15 16    1
  31 15 17   ar
  32 16 36    1
  33 17 18    1
  34 17 20   ar
  35 18 19    1
  36 19 37    1
  37 19 38    1
  38 19 39    1
  39 21 22    1
  40 21 40    1
  41 21 41    1
  42 22 23    1
  43 22 42    1
  44 22 43    1
  45 23 24    1
  46 23 25    1
  47 24 44    1
  48 24 45    1
  49 24 46    1
  50 25 47    1
  51 25 48    1
  52 25 49    1
