@<TRIPOS>MOLECULE
CHEMBL2179557_LIG
30 32 1 0 0
SMALL
USER_CHARGES

@<TRIPOS>ATOM
   1 O1     221.2129 152.5014 176.2245   O.2      778 ligands_prepared   0.0000
   2 C2     220.0270 152.7194 176.4899   C.2      778 ligands_prepared   0.0000
   3 C3     219.6791 153.0455 177.8688   C.2      778 ligands_prepared   0.0000
   4 C4     218.4904 152.9196 178.5471   C.2      778 ligands_prepared   0.0000
   5 C5     218.7122 153.4081 179.8807   C.2      778 ligands_prepared   0.0000
   6 C6     220.0241 153.7954 179.8981   C.2      778 ligands_prepared   0.0000
   7 F7     220.8107 154.3050 180.7991   F        778 ligands_prepared   0.0000
   8 O8     220.6602 153.6021 178.6929   O.3      778 ligands_prepared   0.0000
   9 N9     219.1088 152.6852 175.4758   N.am     778 ligands_prepared   0.0000
  10 C10    219.4818 152.5386 174.0555   C.3      778 ligands_prepared   0.0000
  11 C11    218.2927 152.0944 173.1804   C.3      778 ligands_prepared   0.0000
  12 C12    217.7266 150.7481 173.6717   C.3      778 ligands_prepared   0.0000
  13 N13    216.7164 151.1129 174.7553   N.4      778 ligands_prepared   1.0000
  14 C14    216.6938 152.6456 174.8089   C.3      778 ligands_prepared   0.0000
  15 C15    217.1188 153.0616 173.3977   C.3      778 ligands_prepared   0.0000
  16 C16    217.7442 153.1413 175.8167   C.3      778 ligands_prepared   0.0000
  17 H17    217.5582 152.5327 178.1653   H        778 ligands_prepared   0.0000
  18 H18    217.9854 153.4463 180.6716   H        778 ligands_prepared   0.0000
  19 H19    219.8930 153.5044 173.6739   H        778 ligands_prepared   0.0000
  20 H20    220.2834 151.7650 173.9542   H        778 ligands_prepared   0.0000
  21 H21    218.6141 152.0398 172.1161   H        778 ligands_prepared   0.0000
  22 H22    217.2173 150.1912 172.8558   H        778 ligands_prepared   0.0000
  23 H23    218.5033 150.0715 174.0852   H        778 ligands_prepared   0.0000
  24 H24    215.7736 150.7373 174.5271   H        778 ligands_prepared   0.0000
  25 H25    216.9873 150.7091 175.6745   H        778 ligands_prepared   0.0000
  26 H26    215.6716 152.9904 175.0988   H        778 ligands_prepared   0.0000
  27 H27    216.3162 152.9274 172.6496   H        778 ligands_prepared   0.0000
  28 H28    217.4097 154.1252 173.3274   H        778 ligands_prepared   0.0000
  29 H29    217.7157 154.2600 175.8564   H        778 ligands_prepared   0.0000
  30 H30    217.4873 152.7942 176.8511   H        778 ligands_prepared   0.0000
@<TRIPOS>BOND
   1  1  2    2
   2  2  3    1
   3  2  9   am
   4  3  4    2
   5  3  8    1
   6  4  5    1
   7  4 17    1
   8  5  6    2
   9  5 18    1
  10  6  7    1
  11  6  8    1
  12 10  9    1
  13  9 16    1
  14 10 11    1
  15 10 19    1
  16 10 20    1
  17 11 12    1
  18 11 15    1
  19 11 21    1
  20 12 13    1
  21 12 22    1
  22 12 23    1
  23 13 14    1
  24 13 24    1
  25 13 25    1
  26 14 15    1
  27 14 16    1
  28 14 26    1
  29 15 27    1
  30 15 28    1
  31 16 29    1
  32 16 30    1
