@<TRIPOS>MOLECULE
CHEMBL2180263_LIG
60 65 1 0 0
SMALL
USER_CHARGES

@<TRIPOS>ATOM
   1 O1     224.3455 152.8640 176.4830   O.2      778 ligands_prepared   0.0000
   2 C2     223.7481 153.8446 176.9004   C.2      778 ligands_prepared   0.0000
   3 N3     224.2245 155.1125 176.6968   N.am     778 ligands_prepared   0.0000
   4 C4     225.4897 155.3174 175.9967   C.3      778 ligands_prepared   0.0000
   5 C5     226.6038 154.4301 176.6058   C.3      778 ligands_prepared   0.0000
   6 C6     227.8601 154.6426 175.7490   C.3      778 ligands_prepared   0.0000
   7 C7     228.3295 156.0969 175.8905   C.3      778 ligands_prepared   0.0000
   8 N8     227.3275 156.8998 176.6989   N.4      778 ligands_prepared   1.0000
   9 C9     227.2708 156.3341 178.1062   C.3      778 ligands_prepared   0.0000
  10 C10    226.9107 154.8433 178.0526   C.3      778 ligands_prepared   0.0000
  11 C11    225.9270 156.8175 176.0930   C.3      778 ligands_prepared   0.0000
  12 C12    225.8953 157.4877 174.7151   C.3      778 ligands_prepared   0.0000
  13 C13    226.2664 158.9295 174.7896   C.ar     778 ligands_prepared   0.0000
  14 C14    227.6037 159.3244 174.8803   C.ar     778 ligands_prepared   0.0000
  15 C15    227.9096 160.6804 174.9433   C.ar     778 ligands_prepared   0.0000
  16 C16    226.8618 161.6091 174.9160   C.ar     778 ligands_prepared   0.0000
  17 N17    225.5686 161.2372 174.8458   N.ar     778 ligands_prepared   0.0000
  18 C18    225.2758 159.9234 174.7883   C.ar     778 ligands_prepared   0.0000
  19 C19    222.5024 153.7487 177.6793   C.2      778 ligands_prepared   0.0000
  20 C20    222.2075 153.8091 179.0079   C.2      778 ligands_prepared   0.0000
  21 C21    220.7911 153.5411 179.1171   C.ar     778 ligands_prepared   0.0000
  22 C22    219.8846 153.4323 180.1700   C.ar     778 ligands_prepared   0.0000
  23 C23    218.5603 153.1429 179.8618   C.ar     778 ligands_prepared   0.0000
  24 C24    218.1270 152.9857 178.5364   C.ar     778 ligands_prepared   0.0000
  25 C25    219.0087 153.0912 177.4580   C.ar     778 ligands_prepared   0.0000
  26 C26    218.5696 152.9519 176.0674   C.ar     778 ligands_prepared   0.0000
  27 C27    217.3085 153.4021 175.6445   C.ar     778 ligands_prepared   0.0000
  28 C28    216.9394 153.2141 174.3144   C.ar     778 ligands_prepared   0.0000
  29 C29    217.8318 152.6046 173.4372   C.ar     778 ligands_prepared   0.0000
  30 C30    219.0781 152.1997 173.9285   C.ar     778 ligands_prepared   0.0000
  31 N31    219.4421 152.3617 175.2134   N.ar     778 ligands_prepared   0.0000
  32 C32    220.3364 153.3549 177.7875   C.ar     778 ligands_prepared   0.0000
  33 O33    221.3777 153.4769 176.8924   O.3      778 ligands_prepared   0.0000
  34 H34    223.7134 155.9400 177.0069   H        778 ligands_prepared   0.0000
  35 H35    225.3505 155.0365 174.9104   H        778 ligands_prepared   0.0000
  36 H36    226.2921 153.3587 176.5739   H        778 ligands_prepared   0.0000
  37 H37    228.6626 153.9432 176.0604   H        778 ligands_prepared   0.0000
  38 H38    227.6635 154.3914 174.6862   H        778 ligands_prepared   0.0000
  39 H39    229.3195 156.1534 176.4047   H        778 ligands_prepared   0.0000
  40 H40    228.4753 156.5802 174.8998   H        778 ligands_prepared   0.0000
  41 H41    227.6299 157.9076 176.7244   H        778 ligands_prepared   0.0000
  42 H42    226.5285 156.9173 178.7003   H        778 ligands_prepared   0.0000
  43 H43    228.2577 156.5013 178.5984   H        778 ligands_prepared   0.0000
  44 H44    227.7432 154.2268 178.4509   H        778 ligands_prepared   0.0000
  45 H45    226.0589 154.6227 178.7269   H        778 ligands_prepared   0.0000
  46 H46    225.2389 157.3714 176.7927   H        778 ligands_prepared   0.0000
  47 H47    226.5308 156.9350 173.9859   H        778 ligands_prepared   0.0000
  48 H48    224.8633 157.3771 174.2892   H        778 ligands_prepared   0.0000
  49 H49    228.4020 158.5759 174.9031   H        778 ligands_prepared   0.0000
  50 H50    228.9443 161.0165 175.0192   H        778 ligands_prepared   0.0000
  51 H51    227.0521 162.6922 174.9577   H        778 ligands_prepared   0.0000
  52 H52    224.2079 159.6693 174.7474   H        778 ligands_prepared   0.0000
  53 H53    222.8663 154.0068 179.8349   H        778 ligands_prepared   0.0000
  54 H54    220.2132 153.5703 181.2008   H        778 ligands_prepared   0.0000
  55 H55    217.8318 153.0374 180.6688   H        778 ligands_prepared   0.0000
  56 H56    217.0690 152.7765 178.3412   H        778 ligands_prepared   0.0000
  57 H57    216.6308 153.8934 176.3418   H        778 ligands_prepared   0.0000
  58 H58    215.9574 153.5455 173.9650   H        778 ligands_prepared   0.0000
  59 H59    217.5722 152.4427 172.3918   H        778 ligands_prepared   0.0000
  60 H60    219.8249 151.7233 173.2768   H        778 ligands_prepared   0.0000
@<TRIPOS>BOND
   1  1  2    2
   2  2  3   am
   3  2 19    1
   4  3  4    1
   5  3 34    1
   6  4  5    1
   7  4 11    1
   8  4 35    1
   9  5  6    1
  10  5 10    1
  11  5 36    1
  12  6  7    1
  13  6 37    1
  14  6 38    1
  15  7  8    1
  16  7 39    1
  17  7 40    1
  18  8  9    1
  19  8 11    1
  20  8 41    1
  21  9 10    1
  22  9 42    1
  23  9 43    1
  24 10 44    1
  25 10 45    1
  26 11 12    1
  27 11 46    1
  28 12 13    1
  29 12 47    1
  30 12 48    1
  31 13 14   ar
  32 13 18   ar
  33 14 15   ar
  34 14 49    1
  35 15 16   ar
  36 15 50    1
  37 16 17   ar
  38 16 51    1
  39 17 18   ar
  40 18 52    1
  41 19 20    2
  42 19 33    1
  43 20 21    1
  44 20 53    1
  45 21 22   ar
  46 21 32   ar
  47 22 23   ar
  48 22 54    1
  49 23 24   ar
  50 23 55    1
  51 24 25   ar
  52 24 56    1
  53 25 26    1
  54 25 32   ar
  55 26 27   ar
  56 26 31   ar
  57 27 28   ar
  58 27 57    1
  59 28 29   ar
  60 28 58    1
  61 29 30   ar
  62 29 59    1
  63 30 31   ar
  64 30 60    1
  65 32 33    1
