@<TRIPOS>MOLECULE
CHEMBL3329529_LIG
23 24 1 0 0
SMALL
USER_CHARGES

@<TRIPOS>ATOM
   1 C1     219.1629 153.5153 177.7430   C.3      778 ligands_prepared   0.0000
   2 C2     219.6108 152.8565 176.4836   C.2      778 ligands_prepared   0.0000
   3 O3     220.7753 152.5007 176.3059   O.2      778 ligands_prepared   0.0000
   4 N4     218.7067 152.6325 175.4748   N.am     778 ligands_prepared   0.0000
   5 C5     217.2888 153.0282 175.6035   C.3      778 ligands_prepared   0.0000
   6 C6     216.4337 152.3876 174.5037   C.3      778 ligands_prepared   0.0000
   7 C7     217.0661 152.6800 173.1137   C.3      778 ligands_prepared   0.0000
   8 C8     217.9955 151.4655 173.3983   C.3      778 ligands_prepared   0.0000
   9 C9     219.1756 151.9216 174.2631   C.3      778 ligands_prepared   0.0000
  10 N10    216.9044 150.9169 174.3563   N.4      778 ligands_prepared   1.0000
  11 H11    218.6996 154.4998 177.5691   H        778 ligands_prepared   0.0000
  12 H12    218.4244 152.9030 178.2907   H        778 ligands_prepared   0.0000
  13 H13    220.0125 153.6753 178.4314   H        778 ligands_prepared   0.0000
  14 H14    217.1957 154.1427 175.5427   H        778 ligands_prepared   0.0000
  15 H15    216.9049 152.7332 176.6130   H        778 ligands_prepared   0.0000
  16 H16    215.3469 152.5122 174.6371   H        778 ligands_prepared   0.0000
  17 H17    217.5537 153.6537 172.9910   H        778 ligands_prepared   0.0000
  18 H18    216.3849 152.5520 172.2612   H        778 ligands_prepared   0.0000
  19 H19    218.2619 150.7880 172.5698   H        778 ligands_prepared   0.0000
  20 H20    219.8446 152.5904 173.6648   H        778 ligands_prepared   0.0000
  21 H21    219.8073 151.0498 174.5696   H        778 ligands_prepared   0.0000
  22 H22    216.2150 150.2963 173.8995   H        778 ligands_prepared   0.0000
  23 H23    217.2400 150.4597 175.2148   H        778 ligands_prepared   0.0000
@<TRIPOS>BOND
   1  1  2    1
   2  1 11    1
   3  1 12    1
   4  1 13    1
   5  2  3    2
   6  2  4   am
   7  5  4    1
   8  4  9    1
   9  5  6    1
  10  5 14    1
  11  5 15    1
  12  6  7    1
  13  6 10    1
  14  6 16    1
  15  7  8    1
  16  7 17    1
  17  7 18    1
  18  8  9    1
  19  8 10    1
  20  8 19    1
  21  9 20    1
  22  9 21    1
  23 10 22    1
  24 10 23    1
