@<TRIPOS>MOLECULE
CHEMBL2179876_LIG
55 59 1 0 0
SMALL
USER_CHARGES

@<TRIPOS>ATOM
   1 O1     223.4709 152.0395 177.5335   O.2      778 ligands_prepared   0.0000
   2 C2     222.9182 153.0786 177.1954   C.2      778 ligands_prepared   0.0000
   3 N3     223.6565 154.1872 176.8572   N.am     778 ligands_prepared   0.0000
   4 C4     225.1090 154.1035 176.7470   C.3      778 ligands_prepared   0.0000
   5 C5     225.7719 153.7115 178.0928   C.3      778 ligands_prepared   0.0000
   6 C6     225.7061 154.8801 179.0827   C.3      778 ligands_prepared   0.0000
   7 C7     226.5367 156.0550 178.5451   C.3      778 ligands_prepared   0.0000
   8 N8     226.9329 155.7898 177.1030   N.4      778 ligands_prepared   1.0000
   9 C9     227.8756 154.6018 177.0673   C.3      778 ligands_prepared   0.0000
  10 C10    227.2470 153.4007 177.7910   C.3      778 ligands_prepared   0.0000
  11 C11    225.6666 155.4957 176.3062   C.3      778 ligands_prepared   0.0000
  12 C12    225.9601 155.5563 174.8020   C.3      778 ligands_prepared   0.0000
  13 C13    226.8889 156.6859 174.5038   C.ar     778 ligands_prepared   0.0000
  14 C14    228.2148 156.4574 174.1321   C.ar     778 ligands_prepared   0.0000
  15 C15    229.0423 157.5425 173.8555   C.ar     778 ligands_prepared   0.0000
  16 C16    228.5133 158.8336 173.9536   C.ar     778 ligands_prepared   0.0000
  17 N17    227.2343 159.0646 174.3114   N.ar     778 ligands_prepared   0.0000
  18 C18    226.4385 158.0130 174.5844   C.ar     778 ligands_prepared   0.0000
  19 C19    221.4662 153.2085 177.0828   C.2      778 ligands_prepared   0.0000
  20 C20    220.7205 153.0118 175.9503   C.2      778 ligands_prepared   0.0000
  21 C21    219.3112 153.1126 176.1912   C.2      778 ligands_prepared   0.0000
  22 C22    218.3259 152.8874 175.1412   C.ar     778 ligands_prepared   0.0000
  23 C23    218.6723 152.1353 174.0161   C.ar     778 ligands_prepared   0.0000
  24 C24    217.7264 151.8929 173.0236   C.ar     778 ligands_prepared   0.0000
  25 C25    216.4351 152.4004 173.1517   C.ar     778 ligands_prepared   0.0000
  26 C26    216.0923 153.1615 174.2673   C.ar     778 ligands_prepared   0.0000
  27 C27    217.0341 153.4075 175.2619   C.ar     778 ligands_prepared   0.0000
  28 C28    219.0137 153.4061 177.4968   C.2      778 ligands_prepared   0.0000
  29 S29    220.4484 153.5290 178.4467   S.3      778 ligands_prepared   0.0000
  30 H30    223.2142 155.0790 176.6454   H        778 ligands_prepared   0.0000
  31 H31    225.3756 153.3261 175.9723   H        778 ligands_prepared   0.0000
  32 H32    225.2612 152.8161 178.5170   H        778 ligands_prepared   0.0000
  33 H33    224.6571 155.1876 179.2651   H        778 ligands_prepared   0.0000
  34 H34    226.0838 154.5658 180.0771   H        778 ligands_prepared   0.0000
  35 H35    227.4646 156.2075 179.1429   H        778 ligands_prepared   0.0000
  36 H36    225.9757 157.0155 178.5970   H        778 ligands_prepared   0.0000
  37 H37    227.4141 156.6385 176.7036   H        778 ligands_prepared   0.0000
  38 H38    228.1181 154.3601 176.0073   H        778 ligands_prepared   0.0000
  39 H39    228.8391 154.9013 177.5395   H        778 ligands_prepared   0.0000
  40 H40    227.7909 153.1800 178.7303   H        778 ligands_prepared   0.0000
  41 H41    227.3445 152.4831 177.1779   H        778 ligands_prepared   0.0000
  42 H42    224.9269 156.3080 176.5649   H        778 ligands_prepared   0.0000
  43 H43    225.0197 155.6415 174.2113   H        778 ligands_prepared   0.0000
  44 H44    226.4114 154.5936 174.4566   H        778 ligands_prepared   0.0000
  45 H45    228.6014 155.4372 174.0576   H        778 ligands_prepared   0.0000
  46 H46    230.0800 157.3866 173.5580   H        778 ligands_prepared   0.0000
  47 H47    229.1222 159.7229 173.7375   H        778 ligands_prepared   0.0000
  48 H48    225.4072 158.2488 174.8786   H        778 ligands_prepared   0.0000
  49 H49    221.1212 152.7920 174.9688   H        778 ligands_prepared   0.0000
  50 H50    219.6807 151.7323 173.9197   H        778 ligands_prepared   0.0000
  51 H51    217.9986 151.3057 172.1453   H        778 ligands_prepared   0.0000
  52 H52    215.6915 152.2007 172.3789   H        778 ligands_prepared   0.0000
  53 H53    215.0828 153.5655 174.3634   H        778 ligands_prepared   0.0000
  54 H54    216.7704 154.0059 176.1342   H        778 ligands_prepared   0.0000
  55 H55    218.0281 153.5447 177.9198   H        778 ligands_prepared   0.0000
@<TRIPOS>BOND
   1  1  2    2
   2  2  3   am
   3  2 19    1
   4  3  4    1
   5  3 30    1
   6  4  5    1
   7  4 11    1
   8  4 31    1
   9  5  6    1
  10  5 10    1
  11  5 32    1
  12  6  7    1
  13  6 33    1
  14  6 34    1
  15  7  8    1
  16  7 35    1
  17  7 36    1
  18  8  9    1
  19  8 11    1
  20  8 37    1
  21  9 10    1
  22  9 38    1
  23  9 39    1
  24 10 40    1
  25 10 41    1
  26 11 12    1
  27 11 42    1
  28 12 13    1
  29 12 43    1
  30 12 44    1
  31 13 14   ar
  32 13 18   ar
  33 14 15   ar
  34 14 45    1
  35 15 16   ar
  36 15 46    1
  37 16 17   ar
  38 16 47    1
  39 17 18   ar
  40 18 48    1
  41 19 20    2
  42 19 29    1
  43 20 21    1
  44 20 49    1
  45 21 22    1
  46 21 28    2
  47 22 23   ar
  48 22 27   ar
  49 23 24   ar
  50 23 50    1
  51 24 25   ar
  52 24 51    1
  53 25 26   ar
  54 25 52    1
  55 26 27   ar
  56 26 53    1
  57 27 54    1
  58 28 29    1
  59 28 55    1
