@<TRIPOS>MOLECULE
CHEMBL2179839_LIG
48 51 1 0 0
SMALL
USER_CHARGES

@<TRIPOS>ATOM
   1 O1     225.8363 162.1452 173.1081   O.2      778 ligands_prepared   0.0000
   2 C2     224.9725 161.3092 172.8724   C.2      778 ligands_prepared   0.0000
   3 N3     225.1066 160.0253 173.3359   N.am     778 ligands_prepared   0.0000
   4 C4     226.2795 159.6509 174.1255   C.3      778 ligands_prepared   0.0000
   5 C5     227.5676 159.7293 173.2701   C.3      778 ligands_prepared   0.0000
   6 C6     228.7454 159.3929 174.1957   C.3      778 ligands_prepared   0.0000
   7 C7     228.6144 157.9419 174.6796   C.3      778 ligands_prepared   0.0000
   8 N8     227.3021 157.3439 174.2097   N.4      778 ligands_prepared   1.0000
   9 C9     227.2963 157.2986 172.6920   C.3      778 ligands_prepared   0.0000
  10 C10    227.5235 158.7073 172.1255   C.3      778 ligands_prepared   0.0000
  11 C11    226.1137 158.1885 174.6616   C.3      778 ligands_prepared   0.0000
  12 C12    225.9763 158.1678 176.1863   C.3      778 ligands_prepared   0.0000
  13 C13    225.8046 156.7878 176.7215   C.ar     778 ligands_prepared   0.0000
  14 C14    226.3783 156.3954 177.9336   C.ar     778 ligands_prepared   0.0000
  15 C15    226.1645 155.1008 178.3996   C.ar     778 ligands_prepared   0.0000
  16 C16    225.3695 154.2336 177.6415   C.ar     778 ligands_prepared   0.0000
  17 N17    224.8092 154.6049 176.4715   N.ar     778 ligands_prepared   0.0000
  18 C18    225.0233 155.8552 176.0209   C.ar     778 ligands_prepared   0.0000
  19 C19    223.7528 161.6232 172.0903   C.ar     778 ligands_prepared   0.0000
  20 C20    222.5218 161.2011 172.6043   C.ar     778 ligands_prepared   0.0000
  21 C21    221.3512 161.4466 171.8958   C.ar     778 ligands_prepared   0.0000
  22 C22    221.4571 162.1175 170.6762   C.ar     778 ligands_prepared   0.0000
  23 F23    220.3463 162.3641 169.9953   F        778 ligands_prepared   0.0000
  24 C24    222.6731 162.5420 170.1363   C.ar     778 ligands_prepared   0.0000
  25 C25    223.8324 162.2882 170.8628   C.ar     778 ligands_prepared   0.0000
  26 H26    224.4205 159.3024 173.1306   H        778 ligands_prepared   0.0000
  27 H27    226.3682 160.3613 174.9989   H        778 ligands_prepared   0.0000
  28 H28    227.6860 160.7606 172.8569   H        778 ligands_prepared   0.0000
  29 H29    228.7872 160.0938 175.0543   H        778 ligands_prepared   0.0000
  30 H30    229.7086 159.5398 173.6643   H        778 ligands_prepared   0.0000
  31 H31    229.4481 157.3094 174.2869   H        778 ligands_prepared   0.0000
  32 H32    228.6751 157.8717 175.7882   H        778 ligands_prepared   0.0000
  33 H33    227.1971 156.3715 174.6001   H        778 ligands_prepared   0.0000
  34 H34    228.0851 156.5884 172.3510   H        778 ligands_prepared   0.0000
  35 H35    226.3275 156.8676 172.3473   H        778 ligands_prepared   0.0000
  36 H36    226.7408 158.9616 171.3840   H        778 ligands_prepared   0.0000
  37 H37    228.4708 158.7455 171.5482   H        778 ligands_prepared   0.0000
  38 H38    225.1969 157.7217 174.2028   H        778 ligands_prepared   0.0000
  39 H39    225.0875 158.7970 176.4645   H        778 ligands_prepared   0.0000
  40 H40    226.8241 158.6983 176.6771   H        778 ligands_prepared   0.0000
  41 H41    226.9783 157.0961 178.5199   H        778 ligands_prepared   0.0000
  42 H42    226.6055 154.7649 179.3394   H        778 ligands_prepared   0.0000
  43 H43    225.1618 153.2062 177.9728   H        778 ligands_prepared   0.0000
  44 H44    224.5432 156.1144 175.0668   H        778 ligands_prepared   0.0000
  45 H45    222.4833 160.6800 173.5677   H        778 ligands_prepared   0.0000
  46 H46    220.3867 161.1198 172.2941   H        778 ligands_prepared   0.0000
  47 H47    222.7242 163.0602 169.1754   H        778 ligands_prepared   0.0000
  48 H48    224.8013 162.6066 170.4628   H        778 ligands_prepared   0.0000
@<TRIPOS>BOND
   1  1  2    2
   2  2  3   am
   3  2 19    1
   4  3  4    1
   5  3 26    1
   6  4  5    1
   7  4 11    1
   8  4 27    1
   9  5  6    1
  10  5 10    1
  11  5 28    1
  12  6  7    1
  13  6 29    1
  14  6 30    1
  15  7  8    1
  16  7 31    1
  17  7 32    1
  18  8  9    1
  19  8 11    1
  20  8 33    1
  21  9 10    1
  22  9 34    1
  23  9 35    1
  24 10 36    1
  25 10 37    1
  26 11 12    1
  27 11 38    1
  28 12 13    1
  29 12 39    1
  30 12 40    1
  31 13 14   ar
  32 13 18   ar
  33 14 15   ar
  34 14 41    1
  35 15 16   ar
  36 15 42    1
  37 16 17   ar
  38 16 43    1
  39 17 18   ar
  40 18 44    1
  41 19 20   ar
  42 19 25   ar
  43 20 21   ar
  44 20 45    1
  45 21 22   ar
  46 21 46    1
  47 22 23    1
  48 22 24   ar
  49 24 25   ar
  50 24 47    1
  51 25 48    1
