@<TRIPOS>MOLECULE
CHEMBL2151441_LIG
48 51 1 0 0
SMALL
USER_CHARGES

@<TRIPOS>ATOM
   1 C1     226.5345 156.9003 177.6285   C.3      778 ligands_prepared   0.0000
   2 C2     225.6544 155.7886 177.2548   C.2      778 ligands_prepared   0.0000
   3 C3     224.6733 155.7753 176.3016   C.2      778 ligands_prepared   0.0000
   4 C4     224.0251 154.5075 176.1579   C.2      778 ligands_prepared   0.0000
   5 C5     224.5145 153.5561 177.0118   C.2      778 ligands_prepared   0.0000
   6 C6     224.0803 152.1678 177.1471   C.2      778 ligands_prepared   0.0000
   7 O7     224.8265 151.2105 176.9713   O.2      778 ligands_prepared   0.0000
   8 N8     222.7674 151.9791 177.5018   N.am     778 ligands_prepared   0.0000
   9 C9     221.8840 153.1139 177.7522   C.3      778 ligands_prepared   0.0000
  10 C10    221.7521 153.4072 179.2725   C.3      778 ligands_prepared   0.0000
  11 C11    220.9539 152.2988 179.9698   C.3      778 ligands_prepared   0.0000
  12 C12    219.5256 152.2499 179.4060   C.3      778 ligands_prepared   0.0000
  13 N13    219.4134 153.1903 178.2198   N.4      778 ligands_prepared   1.0000
  14 C14    219.6378 154.6153 178.6945   C.3      778 ligands_prepared   0.0000
  15 C15    220.9925 154.7335 179.4070   C.3      778 ligands_prepared   0.0000
  16 C16    220.4653 152.7852 177.1892   C.3      778 ligands_prepared   0.0000
  17 C17    220.1914 153.4764 175.8498   C.3      778 ligands_prepared   0.0000
  18 C18    219.0521 152.8142 175.1499   C.ar     778 ligands_prepared   0.0000
  19 C19    217.7311 153.0987 175.5063   C.ar     778 ligands_prepared   0.0000
  20 C20    216.6931 152.5012 174.8000   C.ar     778 ligands_prepared   0.0000
  21 C21    217.0075 151.6224 173.7546   C.ar     778 ligands_prepared   0.0000
  22 N22    218.2773 151.3194 173.4237   N.ar     778 ligands_prepared   0.0000
  23 C23    219.2809 151.9018 174.1083   C.ar     778 ligands_prepared   0.0000
  24 S24    225.7750 154.2107 178.0196   S.3      778 ligands_prepared   0.0000
  25 H25    226.7342 156.9726 178.7109   H        778 ligands_prepared   0.0000
  26 H26    226.1211 157.8800 177.3247   H        778 ligands_prepared   0.0000
  27 H27    227.5217 156.8238 177.1305   H        778 ligands_prepared   0.0000
  28 H28    224.3946 156.6281 175.6949   H        778 ligands_prepared   0.0000
  29 H29    223.2245 154.3488 175.4413   H        778 ligands_prepared   0.0000
  30 H30    222.4078 151.0484 177.7146   H        778 ligands_prepared   0.0000
  31 H31    222.3018 154.0261 177.2378   H        778 ligands_prepared   0.0000
  32 H32    222.7660 153.4914 179.7316   H        778 ligands_prepared   0.0000
  33 H33    220.9273 152.4781 181.0646   H        778 ligands_prepared   0.0000
  34 H34    221.4559 151.3175 179.8592   H        778 ligands_prepared   0.0000
  35 H35    218.7707 152.5486 180.1715   H        778 ligands_prepared   0.0000
  36 H36    219.2426 151.2224 179.0838   H        778 ligands_prepared   0.0000
  37 H37    218.4588 153.1132 177.7830   H        778 ligands_prepared   0.0000
  38 H38    218.7977 154.8971 179.3725   H        778 ligands_prepared   0.0000
  39 H39    219.5731 155.3063 177.8230   H        778 ligands_prepared   0.0000
  40 H40    221.5836 155.5729 178.9883   H        778 ligands_prepared   0.0000
  41 H41    220.8526 154.9882 180.4773   H        778 ligands_prepared   0.0000
  42 H42    220.3636 151.6700 177.0483   H        778 ligands_prepared   0.0000
  43 H43    221.1151 153.4273 175.2171   H        778 ligands_prepared   0.0000
  44 H44    220.0261 154.5701 175.9728   H        778 ligands_prepared   0.0000
  45 H45    217.5150 153.7857 176.3313   H        778 ligands_prepared   0.0000
  46 H46    215.6522 152.7122 175.0490   H        778 ligands_prepared   0.0000
  47 H47    216.2224 151.1402 173.1541   H        778 ligands_prepared   0.0000
  48 H48    220.2986 151.6165 173.8045   H        778 ligands_prepared   0.0000
@<TRIPOS>BOND
   1  1  2    1
   2  1 25    1
   3  1 26    1
   4  1 27    1
   5  2  3    2
   6  2 24    1
   7  3  4    1
   8  3 28    1
   9  4  5    2
  10  4 29    1
  11  5  6    1
  12  5 24    1
  13  6  7    2
  14  6  8   am
  15  8  9    1
  16  8 30    1
  17  9 10    1
  18  9 16    1
  19  9 31    1
  20 10 11    1
  21 10 15    1
  22 10 32    1
  23 11 12    1
  24 11 33    1
  25 11 34    1
  26 12 13    1
  27 12 35    1
  28 12 36    1
  29 13 14    1
  30 13 16    1
  31 13 37    1
  32 14 15    1
  33 14 38    1
  34 14 39    1
  35 15 40    1
  36 15 41    1
  37 16 17    1
  38 16 42    1
  39 17 18    1
  40 17 43    1
  41 17 44    1
  42 18 19   ar
  43 18 23   ar
  44 19 20   ar
  45 19 45    1
  46 20 21   ar
  47 20 46    1
  48 21 22   ar
  49 21 47    1
  50 22 23   ar
  51 23 48    1
