@<TRIPOS>MOLECULE
CHEMBL3037926_LIG
29 30 1 0 0
SMALL
USER_CHARGES

@<TRIPOS>ATOM
   1 C1     220.3251 153.1494 179.8373   C.3      778 ligands_prepared   0.0000
   2 N2     219.6971 153.5180 178.5667   N.am     778 ligands_prepared   0.0000
   3 C3     220.0831 152.9146 177.4117   C.2      778 ligands_prepared   0.0000
   4 O4     220.9239 152.0119 177.4483   O.2      778 ligands_prepared   0.0000
   5 C5     219.4273 153.3931 176.1291   C.3      778 ligands_prepared   0.0000
   6 C6     219.8513 152.4658 174.8058   C.3      778 ligands_prepared   0.0000
   7 C7     218.6358 152.4247 173.8726   C.3      778 ligands_prepared   0.0000
   8 C8     218.2045 150.9954 173.4898   C.3      778 ligands_prepared   0.0000
   9 N9     216.9784 150.6955 174.3307   N.4      778 ligands_prepared   1.0000
  10 C10    216.2912 152.0341 174.5002   C.3      778 ligands_prepared   0.0000
  11 C11    217.4445 153.0310 174.6740   C.3      778 ligands_prepared   0.0000
  12 C12    217.9067 153.1611 176.1369   C.3      778 ligands_prepared   0.0000
  13 H13    219.8543 152.2394 180.2556   H        778 ligands_prepared   0.0000
  14 H14    220.2207 153.9701 180.5693   H        778 ligands_prepared   0.0000
  15 H15    221.4030 152.9371 179.7115   H        778 ligands_prepared   0.0000
  16 H16    219.0433 154.2957 178.5792   H        778 ligands_prepared   0.0000
  17 H17    219.6398 154.4833 175.9886   H        778 ligands_prepared   0.0000
  18 H18    220.7326 152.8710 174.2671   H        778 ligands_prepared   0.0000
  19 H19    220.1609 151.4605 175.1394   H        778 ligands_prepared   0.0000
  20 H20    218.8379 153.0124 172.9492   H        778 ligands_prepared   0.0000
  21 H21    218.9900 150.2349 173.6815   H        778 ligands_prepared   0.0000
  22 H22    217.9439 150.9208 172.4116   H        778 ligands_prepared   0.0000
  23 H23    217.2860 150.3462 175.2757   H        778 ligands_prepared   0.0000
  24 H24    216.3646 149.9787 173.8989   H        778 ligands_prepared   0.0000
  25 H25    215.6787 152.2616 173.5991   H        778 ligands_prepared   0.0000
  26 H26    215.5928 152.0027 175.3633   H        778 ligands_prepared   0.0000
  27 H27    217.1580 154.0256 174.2703   H        778 ligands_prepared   0.0000
  28 H28    217.3946 154.0108 176.6277   H        778 ligands_prepared   0.0000
  29 H29    217.6358 152.2733 176.7363   H        778 ligands_prepared   0.0000
@<TRIPOS>BOND
   1  1  2    1
   2  1 13    1
   3  1 14    1
   4  1 15    1
   5  2  3   am
   6  2 16    1
   7  3  4    2
   8  3  5    1
   9  6  5    1
  10  5 12    1
  11  5 17    1
  12  6  7    1
  13  6 18    1
  14  6 19    1
  15  7  8    1
  16  7 11    1
  17  7 20    1
  18  8  9    1
  19  8 21    1
  20  8 22    1
  21  9 10    1
  22  9 23    1
  23  9 24    1
  24 10 11    1
  25 10 25    1
  26 10 26    1
  27 11 12    1
  28 11 27    1
  29 12 28    1
  30 12 29    1
