@<TRIPOS>MOLECULE
CHEMBL2180262_LIG
65 70 1 0 0
SMALL
USER_CHARGES

@<TRIPOS>ATOM
   1 C1     215.7951 154.8102 175.4402   C.3      778 ligands_prepared   0.0000
   2 O2     216.9903 154.1534 175.8481   O.3      778 ligands_prepared   0.0000
   3 C3     217.6337 153.3889 174.9304   C.ar     778 ligands_prepared   0.0000
   4 C4     217.2632 153.2554 173.5920   C.ar     778 ligands_prepared   0.0000
   5 C5     218.0209 152.4308 172.7640   C.ar     778 ligands_prepared   0.0000
   6 C6     219.1300 151.7523 173.2646   C.ar     778 ligands_prepared   0.0000
   7 C7     219.4946 151.8940 174.6025   C.ar     778 ligands_prepared   0.0000
   8 C8     218.7532 152.7093 175.4556   C.ar     778 ligands_prepared   0.0000
   9 C9     219.1164 152.8791 176.8556   C.ar     778 ligands_prepared   0.0000
  10 C10    218.1699 152.8118 177.8794   C.ar     778 ligands_prepared   0.0000
  11 C11    218.5102 153.0315 179.2239   C.ar     778 ligands_prepared   0.0000
  12 C12    219.8098 153.3342 179.6056   C.ar     778 ligands_prepared   0.0000
  13 C13    220.7835 153.3914 178.6104   C.ar     778 ligands_prepared   0.0000
  14 C14    222.2013 153.6570 178.5890   C.2      778 ligands_prepared   0.0000
  15 C15    222.5881 153.5512 177.2856   C.2      778 ligands_prepared   0.0000
  16 C16    223.8970 153.6721 176.6287   C.2      778 ligands_prepared   0.0000
  17 O17    224.5515 152.7166 176.2384   O.2      778 ligands_prepared   0.0000
  18 N18    224.3663 154.9556 176.5233   N.am     778 ligands_prepared   0.0000
  19 C19    225.6743 155.2194 175.9249   C.3      778 ligands_prepared   0.0000
  20 C20    226.7608 154.3332 176.5865   C.3      778 ligands_prepared   0.0000
  21 C21    226.9614 154.7138 178.0607   C.3      778 ligands_prepared   0.0000
  22 C22    227.2794 156.2126 178.1797   C.3      778 ligands_prepared   0.0000
  23 N23    227.4193 156.8185 176.7903   N.4      778 ligands_prepared   1.0000
  24 C24    228.5039 156.0448 176.0667   C.3      778 ligands_prepared   0.0000
  25 C25    228.0693 154.5935 175.8282   C.3      778 ligands_prepared   0.0000
  26 C26    226.0508 156.7221 176.1229   C.3      778 ligands_prepared   0.0000
  27 C27    225.9273 157.5651 174.8482   C.3      778 ligands_prepared   0.0000
  28 C28    226.2668 159.0107 174.9508   C.ar     778 ligands_prepared   0.0000
  29 C29    227.5706 159.4084 175.2681   C.ar     778 ligands_prepared   0.0000
  30 C30    227.8703 160.7638 175.3508   C.ar     778 ligands_prepared   0.0000
  31 C31    226.8500 161.6937 175.1196   C.ar     778 ligands_prepared   0.0000
  32 N32    225.5838 161.3214 174.8516   N.ar     778 ligands_prepared   0.0000
  33 C33    225.2946 160.0067 174.7826   C.ar     778 ligands_prepared   0.0000
  34 O34    221.5253 153.2419 176.4334   O.3      778 ligands_prepared   0.0000
  35 C35    220.4214 153.1512 177.2621   C.ar     778 ligands_prepared   0.0000
  36 H36    215.0074 154.0838 175.2149   H        778 ligands_prepared   0.0000
  37 H37    215.5365 155.3935 176.3364   H        778 ligands_prepared   0.0000
  38 H38    215.9783 155.4774 174.5928   H        778 ligands_prepared   0.0000
  39 H39    216.4011 153.7836 173.1931   H        778 ligands_prepared   0.0000
  40 H40    217.7441 152.3218 171.7123   H        778 ligands_prepared   0.0000
  41 H41    219.7177 151.1109 172.6086   H        778 ligands_prepared   0.0000
  42 H42    220.3694 151.3635 174.9889   H        778 ligands_prepared   0.0000
  43 H43    217.1284 152.5860 177.6279   H        778 ligands_prepared   0.0000
  44 H44    217.7259 152.9671 179.9815   H        778 ligands_prepared   0.0000
  45 H45    220.0685 153.5281 180.6458   H        778 ligands_prepared   0.0000
  46 H46    222.8053 153.8852 179.4494   H        778 ligands_prepared   0.0000
  47 H47    223.7988 155.7625 176.7836   H        778 ligands_prepared   0.0000
  48 H48    225.6178 154.9773 174.8265   H        778 ligands_prepared   0.0000
  49 H49    226.4741 153.2577 176.5035   H        778 ligands_prepared   0.0000
  50 H50    227.7829 154.1076 178.4960   H        778 ligands_prepared   0.0000
  51 H51    226.0760 154.4503 178.6717   H        778 ligands_prepared   0.0000
  52 H52    226.4817 156.7599 178.7337   H        778 ligands_prepared   0.0000
  53 H53    228.2219 156.3891 178.7474   H        778 ligands_prepared   0.0000
  54 H54    227.6978 157.8330 176.8638   H        778 ligands_prepared   0.0000
  55 H55    229.4337 156.0902 176.6857   H        778 ligands_prepared   0.0000
  56 H56    228.7662 156.5569 175.1195   H        778 ligands_prepared   0.0000
  57 H57    227.9496 154.3835 174.7468   H        778 ligands_prepared   0.0000
  58 H58    228.8607 153.8916 176.1639   H        778 ligands_prepared   0.0000
  59 H59    225.3219 157.1755 176.8703   H        778 ligands_prepared   0.0000
  60 H60    226.5813 157.0810 174.0722   H        778 ligands_prepared   0.0000
  61 H61    224.8969 157.4395 174.4295   H        778 ligands_prepared   0.0000
  62 H62    228.3482 158.6589 175.4512   H        778 ligands_prepared   0.0000
  63 H63    228.8795 161.0979 175.5922   H        778 ligands_prepared   0.0000
  64 H64    227.0408 162.7763 175.1527   H        778 ligands_prepared   0.0000
  65 H65    224.2384 159.7581 174.5945   H        778 ligands_prepared   0.0000
@<TRIPOS>BOND
   1  1  2    1
   2  1 36    1
   3  1 37    1
   4  1 38    1
   5  2  3    1
   6  3  4   ar
   7  3  8   ar
   8  4  5   ar
   9  4 39    1
  10  5  6   ar
  11  5 40    1
  12  6  7   ar
  13  6 41    1
  14  7  8   ar
  15  7 42    1
  16  8  9    1
  17  9 10   ar
  18  9 35   ar
  19 10 11   ar
  20 10 43    1
  21 11 12   ar
  22 11 44    1
  23 12 13   ar
  24 12 45    1
  25 13 14    1
  26 13 35   ar
  27 14 15    2
  28 14 46    1
  29 15 16    1
  30 15 34    1
  31 16 17    2
  32 16 18   am
  33 18 19    1
  34 18 47    1
  35 19 20    1
  36 19 26    1
  37 19 48    1
  38 20 21    1
  39 20 25    1
  40 20 49    1
  41 21 22    1
  42 21 50    1
  43 21 51    1
  44 22 23    1
  45 22 52    1
  46 22 53    1
  47 23 24    1
  48 23 26    1
  49 23 54    1
  50 24 25    1
  51 24 55    1
  52 24 56    1
  53 25 57    1
  54 25 58    1
  55 26 27    1
  56 26 59    1
  57 27 28    1
  58 27 60    1
  59 27 61    1
  60 28 29   ar
  61 28 33   ar
  62 29 30   ar
  63 29 62    1
  64 30 31   ar
  65 30 63    1
  66 31 32   ar
  67 31 64    1
  68 32 33   ar
  69 33 65    1
  70 34 35    1
