@<TRIPOS>MOLECULE
CHEMBL2409476_LIG
38 39 1 0 0
SMALL
USER_CHARGES

@<TRIPOS>ATOM
   1 C1     218.5320 153.3994 180.1059   C.3      778 ligands_prepared   0.0000
   2 C2     219.9732 153.7262 179.7287   C.3      778 ligands_prepared   0.0000
   3 C3     220.6116 152.5371 178.9889   C.3      778 ligands_prepared   0.0000
   4 N4     219.8232 152.1994 177.7953   N.am     778 ligands_prepared   0.0000
   5 C5     219.5566 153.1244 176.8321   C.2      778 ligands_prepared   0.0000
   6 O6     220.0202 154.2619 176.9031   O.2      778 ligands_prepared   0.0000
   7 C7     218.7113 152.6589 175.6576   C.3      778 ligands_prepared   0.0000
   8 C8     217.4899 153.5754 175.5043   C.3      778 ligands_prepared   0.0000
   9 C9     216.7260 153.2997 174.1981   C.3      778 ligands_prepared   0.0000
  10 C10    216.1012 151.8882 174.1990   C.3      778 ligands_prepared   0.0000
  11 N11    216.6757 151.0059 173.1132   N.4      778 ligands_prepared   1.0000
  12 C12    218.1868 150.9855 173.1405   C.3      778 ligands_prepared   0.0000
  13 C13    218.7883 152.4070 173.1275   C.3      778 ligands_prepared   0.0000
  14 C14    217.6841 153.4642 173.0115   C.3      778 ligands_prepared   0.0000
  15 C15    219.6024 152.6708 174.4042   C.3      778 ligands_prepared   0.0000
  16 H16    217.9117 153.2356 179.2170   H        778 ligands_prepared   0.0000
  17 H17    218.0761 154.2203 180.6754   H        778 ligands_prepared   0.0000
  18 H18    218.4676 152.4943 180.7235   H        778 ligands_prepared   0.0000
  19 H19    220.5647 153.9772 180.6295   H        778 ligands_prepared   0.0000
  20 H20    220.0105 154.6305 179.0914   H        778 ligands_prepared   0.0000
  21 H21    221.6620 152.7723 178.7004   H        778 ligands_prepared   0.0000
  22 H22    220.6527 151.6409 179.6537   H        778 ligands_prepared   0.0000
  23 H23    219.4063 151.2721 177.7702   H        778 ligands_prepared   0.0000
  24 H24    218.3519 151.6136 175.8454   H        778 ligands_prepared   0.0000
  25 H25    216.8155 153.4552 176.3757   H        778 ligands_prepared   0.0000
  26 H26    217.8111 154.6390 175.5212   H        778 ligands_prepared   0.0000
  27 H27    215.9006 154.0502 174.1099   H        778 ligands_prepared   0.0000
  28 H28    214.9979 151.9470 174.0363   H        778 ligands_prepared   0.0000
  29 H29    216.2357 151.3831 175.1825   H        778 ligands_prepared   0.0000
  30 H30    216.3510 151.3456 172.1798   H        778 ligands_prepared   0.0000
  31 H31    216.3077 150.0323 173.2160   H        778 ligands_prepared   0.0000
  32 H32    218.5232 150.4069 174.0302   H        778 ligands_prepared   0.0000
  33 H33    218.5361 150.4032 172.2542   H        778 ligands_prepared   0.0000
  34 H34    219.4750 152.4938 172.2468   H        778 ligands_prepared   0.0000
  35 H35    218.1248 154.4822 173.0127   H        778 ligands_prepared   0.0000
  36 H36    217.1517 153.3956 172.0433   H        778 ligands_prepared   0.0000
  37 H37    220.4114 151.9201 174.4999   H        778 ligands_prepared   0.0000
  38 H38    220.1160 153.6504 174.3105   H        778 ligands_prepared   0.0000
@<TRIPOS>BOND
   1  1  2    1
   2  1 16    1
   3  1 17    1
   4  1 18    1
   5  2  3    1
   6  2 19    1
   7  2 20    1
   8  3  4    1
   9  3 21    1
  10  3 22    1
  11  4  5   am
  12  4 23    1
  13  5  6    2
  14  5  7    1
  15  8  7    1
  16  7 15    1
  17  7 24    1
  18  8  9    1
  19  8 25    1
  20  8 26    1
  21  9 10    1
  22  9 14    1
  23  9 27    1
  24 10 11    1
  25 10 28    1
  26 10 29    1
  27 11 12    1
  28 11 30    1
  29 11 31    1
  30 12 13    1
  31 12 32    1
  32 12 33    1
  33 13 14    1
  34 13 15    1
  35 13 34    1
  36 14 35    1
  37 14 36    1
  38 15 37    1
  39 15 38    1
