@<TRIPOS>MOLECULE
CHEMBL2179851_LIG
54 58 1 0 0
SMALL
USER_CHARGES

@<TRIPOS>ATOM
   1 O1     223.2934 152.4001 177.1969   O.2      778 ligands_prepared   0.0000
   2 C2     223.4839 153.6065 177.1331   C.2      778 ligands_prepared   0.0000
   3 N3     222.5275 154.5281 177.4670   N.am     778 ligands_prepared   0.0000
   4 C4     221.1892 154.2263 177.9697   C.3      778 ligands_prepared   0.0000
   5 C5     221.2171 153.6068 179.3957   C.3      778 ligands_prepared   0.0000
   6 C6     221.5771 152.1171 179.3397   C.3      778 ligands_prepared   0.0000
   7 C7     220.4948 151.3561 178.5566   C.3      778 ligands_prepared   0.0000
   8 N8     219.5400 152.3424 177.9035   N.4      778 ligands_prepared   1.0000
   9 C9     218.7998 153.1027 178.9875   C.3      778 ligands_prepared   0.0000
  10 C10    219.7959 153.7482 179.9631   C.3      778 ligands_prepared   0.0000
  11 C11    220.3639 153.2888 177.0381   C.3      778 ligands_prepared   0.0000
  12 C12    219.4565 154.0765 176.0826   C.3      778 ligands_prepared   0.0000
  13 C13    218.6713 153.1017 175.2705   C.ar     778 ligands_prepared   0.0000
  14 C14    219.3106 152.1989 174.4152   C.ar     778 ligands_prepared   0.0000
  15 C15    218.5415 151.3662 173.6080   C.ar     778 ligands_prepared   0.0000
  16 C16    217.1474 151.4524 173.6894   C.ar     778 ligands_prepared   0.0000
  17 N17    216.5225 152.2996 174.5319   N.ar     778 ligands_prepared   0.0000
  18 C18    217.2682 153.1079 175.3083   C.ar     778 ligands_prepared   0.0000
  19 C19    224.7808 154.1607 176.6576   C.ar     778 ligands_prepared   0.0000
  20 C20    225.9391 153.3834 176.6639   C.ar     778 ligands_prepared   0.0000
  21 C21    227.1516 153.9288 176.2472   C.ar     778 ligands_prepared   0.0000
  22 C22    227.1776 155.2554 175.8230   C.ar     778 ligands_prepared   0.0000
  23 C23    226.0096 156.0399 175.8400   C.ar     778 ligands_prepared   0.0000
  24 C24    224.7993 155.4964 176.2537   C.ar     778 ligands_prepared   0.0000
  25 O25    226.0012 157.3409 175.4331   O.3      778 ligands_prepared   0.0000
  26 C26    227.3072 157.9285 175.4148   C.3      778 ligands_prepared   0.0000
  27 C27    228.2863 156.9958 174.7205   C.3      778 ligands_prepared   0.0000
  28 O28    228.3795 155.7529 175.4285   O.3      778 ligands_prepared   0.0000
  29 H29    222.7599 155.5278 177.4529   H        778 ligands_prepared   0.0000
  30 H30    220.6564 155.2238 178.0368   H        778 ligands_prepared   0.0000
  31 H31    221.9494 154.1569 180.0315   H        778 ligands_prepared   0.0000
  32 H32    222.5715 151.9759 178.8689   H        778 ligands_prepared   0.0000
  33 H33    221.6736 151.7044 180.3630   H        778 ligands_prepared   0.0000
  34 H34    219.9084 150.6803 179.2186   H        778 ligands_prepared   0.0000
  35 H35    220.9444 150.7163 177.7622   H        778 ligands_prepared   0.0000
  36 H36    218.8488 151.8241 177.2993   H        778 ligands_prepared   0.0000
  37 H37    218.1218 152.3921 179.5149   H        778 ligands_prepared   0.0000
  38 H38    218.1415 153.8652 178.5118   H        778 ligands_prepared   0.0000
  39 H39    219.7337 153.2719 180.9620   H        778 ligands_prepared   0.0000
  40 H40    219.5384 154.8127 180.1368   H        778 ligands_prepared   0.0000
  41 H41    221.0499 152.6359 176.4211   H        778 ligands_prepared   0.0000
  42 H42    218.7721 154.7488 176.6535   H        778 ligands_prepared   0.0000
  43 H43    220.0424 154.7698 175.4384   H        778 ligands_prepared   0.0000
  44 H44    220.4019 152.1563 174.3765   H        778 ligands_prepared   0.0000
  45 H45    219.0150 150.6629 172.9212   H        778 ligands_prepared   0.0000
  46 H46    216.4943 150.8243 173.0657   H        778 ligands_prepared   0.0000
  47 H47    216.7186 153.7834 175.9763   H        778 ligands_prepared   0.0000
  48 H48    225.9042 152.3433 176.9971   H        778 ligands_prepared   0.0000
  49 H49    228.0643 153.3311 176.2457   H        778 ligands_prepared   0.0000
  50 H50    223.8891 156.1014 176.2656   H        778 ligands_prepared   0.0000
  51 H51    227.6002 158.1513 176.4593   H        778 ligands_prepared   0.0000
  52 H52    227.1441 158.8755 174.8634   H        778 ligands_prepared   0.0000
  53 H53    227.9874 156.7685 173.6797   H        778 ligands_prepared   0.0000
  54 H54    229.3302 157.3699 174.7378   H        778 ligands_prepared   0.0000
@<TRIPOS>BOND
   1  1  2    2
   2  2  3   am
   3  2 19    1
   4  3  4    1
   5  3 29    1
   6  4  5    1
   7  4 11    1
   8  4 30    1
   9  5  6    1
  10  5 10    1
  11  5 31    1
  12  6  7    1
  13  6 32    1
  14  6 33    1
  15  7  8    1
  16  7 34    1
  17  7 35    1
  18  8  9    1
  19  8 11    1
  20  8 36    1
  21  9 10    1
  22  9 37    1
  23  9 38    1
  24 10 39    1
  25 10 40    1
  26 11 12    1
  27 11 41    1
  28 12 13    1
  29 12 42    1
  30 12 43    1
  31 13 14   ar
  32 13 18   ar
  33 14 15   ar
  34 14 44    1
  35 15 16   ar
  36 15 45    1
  37 16 17   ar
  38 16 46    1
  39 17 18   ar
  40 18 47    1
  41 19 20   ar
  42 19 24   ar
  43 20 21   ar
  44 20 48    1
  45 21 22   ar
  46 21 49    1
  47 22 23   ar
  48 22 28    1
  49 23 24   ar
  50 23 25    1
  51 24 50    1
  52 25 26    1
  53 26 27    1
  54 26 51    1
  55 26 52    1
  56 27 28    1
  57 27 53    1
  58 27 54    1
