@<TRIPOS>MOLECULE
CHEMBL2179555_LIG
30 32 1 0 0
SMALL
USER_CHARGES

@<TRIPOS>ATOM
   1 O1     220.9480 152.1981 176.0415   O.2      778 ligands_prepared   0.0000
   2 C2     219.8261 152.6440 176.2931   C.2      778 ligands_prepared   0.0000
   3 C3     219.5439 153.0608 177.6647   C.2      778 ligands_prepared   0.0000
   4 C4     218.3585 153.0981 178.3587   C.2      778 ligands_prepared   0.0000
   5 C5     218.6702 153.5532 179.6865   C.2      778 ligands_prepared   0.0000
   6 C6     220.0223 153.7615 179.6956   C.2      778 ligands_prepared   0.0000
   7 Cl7    221.1095 154.2892 180.8337   Cl       778 ligands_prepared   0.0000
   8 O8     220.5984 153.4662 178.4806   O.3      778 ligands_prepared   0.0000
   9 N9     218.8977 152.7033 175.2923   N.am     778 ligands_prepared   0.0000
  10 C10    217.5623 153.3034 175.4707   C.3      778 ligands_prepared   0.0000
  11 C11    216.5520 152.8116 174.4108   C.3      778 ligands_prepared   0.0000
  12 C12    216.3973 151.2809 174.4994   C.3      778 ligands_prepared   0.0000
  13 N13    217.5123 150.7170 173.6192   N.4      778 ligands_prepared   1.0000
  14 C14    218.2185 151.9349 173.0082   C.3      778 ligands_prepared   0.0000
  15 C15    217.1390 153.0231 173.0066   C.3      778 ligands_prepared   0.0000
  16 C16    219.3721 152.3796 173.9306   C.3      778 ligands_prepared   0.0000
  17 H17    217.3796 152.8391 177.9937   H        778 ligands_prepared   0.0000
  18 H18    217.9609 153.6873 180.4873   H        778 ligands_prepared   0.0000
  19 H19    217.1541 153.0298 176.4705   H        778 ligands_prepared   0.0000
  20 H20    217.6439 154.4214 175.4308   H        778 ligands_prepared   0.0000
  21 H21    215.5801 153.3339 174.5538   H        778 ligands_prepared   0.0000
  22 H22    216.4936 150.8914 175.5337   H        778 ligands_prepared   0.0000
  23 H23    215.4089 150.9421 174.1207   H        778 ligands_prepared   0.0000
  24 H24    217.1241 150.1056 172.8738   H        778 ligands_prepared   0.0000
  25 H25    218.1703 150.1387 174.1744   H        778 ligands_prepared   0.0000
  26 H26    218.6022 151.6677 171.9937   H        778 ligands_prepared   0.0000
  27 H27    217.5430 154.0344 172.8483   H        778 ligands_prepared   0.0000
  28 H28    216.3854 152.8745 172.2098   H        778 ligands_prepared   0.0000
  29 H29    220.1561 151.5876 173.9857   H        778 ligands_prepared   0.0000
  30 H30    219.8728 153.2750 173.4785   H        778 ligands_prepared   0.0000
@<TRIPOS>BOND
   1  1  2    2
   2  2  3    1
   3  2  9   am
   4  3  4    2
   5  3  8    1
   6  4  5    1
   7  4 17    1
   8  5  6    2
   9  5 18    1
  10  6  7    1
  11  6  8    1
  12 10  9    1
  13  9 16    1
  14 10 11    1
  15 10 19    1
  16 10 20    1
  17 11 12    1
  18 11 15    1
  19 11 21    1
  20 12 13    1
  21 12 22    1
  22 12 23    1
  23 13 14    1
  24 13 24    1
  25 13 25    1
  26 14 15    1
  27 14 16    1
  28 14 26    1
  29 15 27    1
  30 15 28    1
  31 16 29    1
  32 16 30    1
