@<TRIPOS>MOLECULE
CHEMBL2179858_LIG
47 50 1 0 0
SMALL
USER_CHARGES

@<TRIPOS>ATOM
   1 O1     224.8726 151.2797 176.9771   O.2      778 ligands_prepared   0.0000
   2 C2     224.1047 152.2093 177.1553   C.2      778 ligands_prepared   0.0000
   3 N3     222.7957 152.0409 177.4998   N.am     778 ligands_prepared   0.0000
   4 C4     221.9100 153.1869 177.6954   C.3      778 ligands_prepared   0.0000
   5 C5     221.8284 153.5898 179.1909   C.3      778 ligands_prepared   0.0000
   6 C6     220.9827 154.8684 179.2701   C.3      778 ligands_prepared   0.0000
   7 C7     219.5826 154.5966 178.6996   C.3      778 ligands_prepared   0.0000
   8 N8     219.4600 153.1433 178.2830   N.4      778 ligands_prepared   1.0000
   9 C9     219.7205 152.2617 179.4917   C.3      778 ligands_prepared   0.0000
  10 C10    221.1475 152.4866 180.0098   C.3      778 ligands_prepared   0.0000
  11 C11    220.4787 152.7981 177.2000   C.3      778 ligands_prepared   0.0000
  12 C12    220.1353 153.5036 175.8852   C.3      778 ligands_prepared   0.0000
  13 C13    219.0148 152.8335 175.1667   C.ar     778 ligands_prepared   0.0000
  14 C14    217.6837 153.1138 175.4846   C.ar     778 ligands_prepared   0.0000
  15 C15    216.6657 152.4844 174.7739   C.ar     778 ligands_prepared   0.0000
  16 C16    217.0106 151.5894 173.7552   C.ar     778 ligands_prepared   0.0000
  17 N17    218.2927 151.3135 173.4413   N.ar     778 ligands_prepared   0.0000
  18 C18    219.2747 151.9228 174.1298   C.ar     778 ligands_prepared   0.0000
  19 C19    224.5514 153.6419 177.0616   C.ar     778 ligands_prepared   0.0000
  20 C20    224.0882 154.4685 176.0373   C.ar     778 ligands_prepared   0.0000
  21 C21    224.5340 155.7930 176.0020   C.ar     778 ligands_prepared   0.0000
  22 C22    225.4198 156.2476 176.9770   C.ar     778 ligands_prepared   0.0000
  23 C23    225.8109 155.3311 177.9554   C.ar     778 ligands_prepared   0.0000
  24 Cl24   226.8904 155.8014 179.1982   Cl       778 ligands_prepared   0.0000
  25 N25    225.4042 154.0557 178.0222   N.ar     778 ligands_prepared   0.0000
  26 H26    222.4102 151.1141 177.6948   H        778 ligands_prepared   0.0000
  27 H27    222.3002 154.0636 177.1023   H        778 ligands_prepared   0.0000
  28 H28    222.8548 153.7807 179.5857   H        778 ligands_prepared   0.0000
  29 H29    220.9141 155.2159 180.3213   H        778 ligands_prepared   0.0000
  30 H30    221.4707 155.7020 178.7252   H        778 ligands_prepared   0.0000
  31 H31    219.3593 155.2501 177.8271   H        778 ligands_prepared   0.0000
  32 H32    218.7878 154.8148 179.4523   H        778 ligands_prepared   0.0000
  33 H33    218.4938 152.9623 177.9092   H        778 ligands_prepared   0.0000
  34 H34    218.9611 152.4996 180.2723   H        778 ligands_prepared   0.0000
  35 H35    219.5459 151.1981 179.2099   H        778 ligands_prepared   0.0000
  36 H36    221.1291 152.7670 181.0840   H        778 ligands_prepared   0.0000
  37 H37    221.7312 151.5444 179.9839   H        778 ligands_prepared   0.0000
  38 H38    220.4168 151.6823 177.0448   H        778 ligands_prepared   0.0000
  39 H39    219.9234 154.5862 176.0491   H        778 ligands_prepared   0.0000
  40 H40    221.0486 153.5206 175.2352   H        778 ligands_prepared   0.0000
  41 H41    217.4388 153.8269 176.2770   H        778 ligands_prepared   0.0000
  42 H42    215.6179 152.6865 175.0032   H        778 ligands_prepared   0.0000
  43 H43    216.2453 151.0713 173.1597   H        778 ligands_prepared   0.0000
  44 H44    220.3030 151.6731 173.8317   H        778 ligands_prepared   0.0000
  45 H45    223.3955 154.0936 175.2792   H        778 ligands_prepared   0.0000
  46 H46    224.1892 156.4674 175.2082   H        778 ligands_prepared   0.0000
  47 H47    225.7900 157.2764 176.9670   H        778 ligands_prepared   0.0000
@<TRIPOS>BOND
   1  1  2    2
   2  2  3   am
   3  2 19    1
   4  3  4    1
   5  3 26    1
   6  4  5    1
   7  4 11    1
   8  4 27    1
   9  5  6    1
  10  5 10    1
  11  5 28    1
  12  6  7    1
  13  6 29    1
  14  6 30    1
  15  7  8    1
  16  7 31    1
  17  7 32    1
  18  8  9    1
  19  8 11    1
  20  8 33    1
  21  9 10    1
  22  9 34    1
  23  9 35    1
  24 10 36    1
  25 10 37    1
  26 11 12    1
  27 11 38    1
  28 12 13    1
  29 12 39    1
  30 12 40    1
  31 13 14   ar
  32 13 18   ar
  33 14 15   ar
  34 14 41    1
  35 15 16   ar
  36 15 42    1
  37 16 17   ar
  38 16 43    1
  39 17 18   ar
  40 18 44    1
  41 19 20   ar
  42 19 25   ar
  43 20 21   ar
  44 20 45    1
  45 21 22   ar
  46 21 46    1
  47 22 23   ar
  48 22 47    1
  49 23 24    1
  50 23 25   ar
