@<TRIPOS>MOLECULE
CHEMBL2179881_LIG
55 59 1 0 0
SMALL
USER_CHARGES

@<TRIPOS>ATOM
   1 C1     227.4911 159.6997 177.2182   C.3      778 ligands_prepared   0.0000
   2 O2     226.4610 158.9139 176.6301   O.3      778 ligands_prepared   0.0000
   3 C3     226.2945 157.6439 177.0868   C.ar     778 ligands_prepared   0.0000
   4 C4     226.9366 157.1222 178.2266   C.ar     778 ligands_prepared   0.0000
   5 C5     226.6849 155.8180 178.6337   C.ar     778 ligands_prepared   0.0000
   6 C6     225.7916 155.0940 177.8605   C.ar     778 ligands_prepared   0.0000
   7 O7     225.4120 153.7831 178.0978   O.3      778 ligands_prepared   0.0000
   8 C8     224.5080 153.4794 177.0788   C.2      778 ligands_prepared   0.0000
   9 C9     223.9840 152.1044 177.1276   C.2      778 ligands_prepared   0.0000
  10 O10    224.6927 151.1322 176.8989   O.2      778 ligands_prepared   0.0000
  11 N11    222.6620 151.9818 177.4478   N.am     778 ligands_prepared   0.0000
  12 C12    221.8289 153.1589 177.6814   C.3      778 ligands_prepared   0.0000
  13 C13    221.7461 153.4617 179.2019   C.3      778 ligands_prepared   0.0000
  14 C14    221.0693 154.8287 179.3599   C.3      778 ligands_prepared   0.0000
  15 C15    219.7033 154.7971 178.6599   C.3      778 ligands_prepared   0.0000
  16 N16    219.3800 153.3963 178.1811   N.4      778 ligands_prepared   1.0000
  17 C17    219.4438 152.4693 179.3861   C.3      778 ligands_prepared   0.0000
  18 C18    220.8880 152.4019 179.9078   C.3      778 ligands_prepared   0.0000
  19 C19    220.3862 152.8786 177.1585   C.3      778 ligands_prepared   0.0000
  20 C20    220.1065 153.3854 175.7410   C.3      778 ligands_prepared   0.0000
  21 C21    218.9322 152.7999 175.0360   C.ar     778 ligands_prepared   0.0000
  22 C22    217.6273 153.0913 175.4437   C.ar     778 ligands_prepared   0.0000
  23 C23    216.5555 152.5382 174.7497   C.ar     778 ligands_prepared   0.0000
  24 C24    216.8193 151.6851 173.6716   C.ar     778 ligands_prepared   0.0000
  25 N25    218.0739 151.3624 173.2982   N.ar     778 ligands_prepared   0.0000
  26 C26    219.1070 151.9000 173.9729   C.ar     778 ligands_prepared   0.0000
  27 C27    224.3069 154.5217 176.2227   C.2      778 ligands_prepared   0.0000
  28 C28    225.1404 155.6023 176.7084   C.ar     778 ligands_prepared   0.0000
  29 C29    225.3945 156.9065 176.3076   C.ar     778 ligands_prepared   0.0000
  30 H30    227.3004 159.8666 178.2838   H        778 ligands_prepared   0.0000
  31 H31    227.4066 160.6452 176.6619   H        778 ligands_prepared   0.0000
  32 H32    228.4752 159.2445 177.0572   H        778 ligands_prepared   0.0000
  33 H33    227.6349 157.7360 178.7987   H        778 ligands_prepared   0.0000
  34 H34    227.1652 155.3851 179.5117   H        778 ligands_prepared   0.0000
  35 H35    222.1978 151.0713 177.4816   H        778 ligands_prepared   0.0000
  36 H36    222.2772 154.0437 177.1511   H        778 ligands_prepared   0.0000
  37 H37    222.7733 153.4846 179.6398   H        778 ligands_prepared   0.0000
  38 H38    221.7013 155.6423 178.9513   H        778 ligands_prepared   0.0000
  39 H39    220.9493 155.0720 180.4373   H        778 ligands_prepared   0.0000
  40 H40    219.6742 155.5040 177.8064   H        778 ligands_prepared   0.0000
  41 H41    218.8883 155.1288 179.3488   H        778 ligands_prepared   0.0000
  42 H42    218.4127 153.3784 177.7630   H        778 ligands_prepared   0.0000
  43 H43    218.7423 152.8476 180.1643   H        778 ligands_prepared   0.0000
  44 H44    219.0611 151.4652 179.0936   H        778 ligands_prepared   0.0000
  45 H45    220.9070 152.5646 181.0057   H        778 ligands_prepared   0.0000
  46 H46    221.3089 151.3853 179.7709   H        778 ligands_prepared   0.0000
  47 H47    220.2348 151.7518 177.1253   H        778 ligands_prepared   0.0000
  48 H48    219.9851 154.5001 175.8092   H        778 ligands_prepared   0.0000
  49 H49    221.0306 153.2724 175.1208   H        778 ligands_prepared   0.0000
  50 H50    217.4472 153.7476 176.3017   H        778 ligands_prepared   0.0000
  51 H51    215.5284 152.7654 175.0372   H        778 ligands_prepared   0.0000
  52 H52    216.0064 151.2321 173.0855   H        778 ligands_prepared   0.0000
  53 H53    220.1122 151.5856 173.6472   H        778 ligands_prepared   0.0000
  54 H54    223.6772 154.5602 175.3513   H        778 ligands_prepared   0.0000
  55 H55    224.9215 157.3428 175.4305   H        778 ligands_prepared   0.0000
@<TRIPOS>BOND
   1  1  2    1
   2  1 30    1
   3  1 31    1
   4  1 32    1
   5  2  3    1
   6  3  4   ar
   7  3 29   ar
   8  4  5   ar
   9  4 33    1
  10  5  6   ar
  11  5 34    1
  12  6  7    1
  13  6 28   ar
  14  7  8    1
  15  8  9    1
  16  8 27    2
  17  9 10    2
  18  9 11   am
  19 11 12    1
  20 11 35    1
  21 12 13    1
  22 12 19    1
  23 12 36    1
  24 13 14    1
  25 13 18    1
  26 13 37    1
  27 14 15    1
  28 14 38    1
  29 14 39    1
  30 15 16    1
  31 15 40    1
  32 15 41    1
  33 16 17    1
  34 16 19    1
  35 16 42    1
  36 17 18    1
  37 17 43    1
  38 17 44    1
  39 18 45    1
  40 18 46    1
  41 19 20    1
  42 19 47    1
  43 20 21    1
  44 20 48    1
  45 20 49    1
  46 21 22   ar
  47 21 26   ar
  48 22 23   ar
  49 22 50    1
  50 23 24   ar
  51 23 51    1
  52 24 25   ar
  53 24 52    1
  54 25 26   ar
  55 26 53    1
  56 27 28    1
  57 27 54    1
  58 28 29   ar
  59 29 55    1
