@<TRIPOS>MOLECULE
CHEMBL2179556_LIG
30 32 1 0 0
SMALL
USER_CHARGES

@<TRIPOS>ATOM
   1 O1     220.9362 152.1751 176.1307   O.2      778 ligands_prepared   0.0000
   2 C2     219.8130 152.6208 176.3733   C.2      778 ligands_prepared   0.0000
   3 C3     219.5123 153.0307 177.7432   C.2      778 ligands_prepared   0.0000
   4 C4     218.3158 153.0984 178.4166   C.2      778 ligands_prepared   0.0000
   5 C5     218.6133 153.5553 179.7472   C.2      778 ligands_prepared   0.0000
   6 C6     219.9707 153.7284 179.7791   C.2      778 ligands_prepared   0.0000
   7 Br7    221.2000 154.2965 181.0254   Br       778 ligands_prepared   0.0000
   8 O8     220.5570 153.4107 178.5785   O.3      778 ligands_prepared   0.0000
   9 N9     218.8921 152.6788 175.3622   N.am     778 ligands_prepared   0.0000
  10 C10    217.5641 153.3012 175.5135   C.3      778 ligands_prepared   0.0000
  11 C11    216.5676 152.8215 174.4374   C.3      778 ligands_prepared   0.0000
  12 C12    216.4029 151.2896 174.4973   C.3      778 ligands_prepared   0.0000
  13 N13    217.5234 150.7337 173.6224   N.4      778 ligands_prepared   1.0000
  14 C14    218.2539 151.9564 173.0504   C.3      778 ligands_prepared   0.0000
  15 C15    217.1778 153.0474 173.0449   C.3      778 ligands_prepared   0.0000
  16 C16    219.3877 152.3719 174.0044   C.3      778 ligands_prepared   0.0000
  17 H17    217.3349 152.8602 178.0378   H        778 ligands_prepared   0.0000
  18 H18    217.8940 153.7154 180.5302   H        778 ligands_prepared   0.0000
  19 H19    217.1328 153.0328 176.5098   H        778 ligands_prepared   0.0000
  20 H20    217.6621 154.4126 175.4743   H        778 ligands_prepared   0.0000
  21 H21    215.5949 153.3449 174.5713   H        778 ligands_prepared   0.0000
  22 H22    216.4835 150.8823 175.5270   H        778 ligands_prepared   0.0000
  23 H23    215.4178 150.9638 174.0990   H        778 ligands_prepared   0.0000
  24 H24    217.1408 150.1420 172.8571   H        778 ligands_prepared   0.0000
  25 H25    218.1689 150.1341 174.1738   H        778 ligands_prepared   0.0000
  26 H26    218.6564 151.7067 172.0382   H        778 ligands_prepared   0.0000
  27 H27    217.5893 154.0627 172.9064   H        778 ligands_prepared   0.0000
  28 H28    216.4379 152.9165 172.2337   H        778 ligands_prepared   0.0000
  29 H29    220.1611 151.5632 174.0646   H        778 ligands_prepared   0.0000
  30 H30    219.9138 153.2651 173.5799   H        778 ligands_prepared   0.0000
@<TRIPOS>BOND
   1  1  2    2
   2  2  3    1
   3  2  9   am
   4  3  4    2
   5  3  8    1
   6  4  5    1
   7  4 17    1
   8  5  6    2
   9  5 18    1
  10  6  7    1
  11  6  8    1
  12 10  9    1
  13  9 16    1
  14 10 11    1
  15 10 19    1
  16 10 20    1
  17 11 12    1
  18 11 15    1
  19 11 21    1
  20 12 13    1
  21 12 22    1
  22 12 23    1
  23 13 14    1
  24 13 24    1
  25 13 25    1
  26 14 15    1
  27 14 16    1
  28 14 26    1
  29 15 27    1
  30 15 28    1
  31 16 29    1
  32 16 30    1
