@<TRIPOS>MOLECULE
CHEMBL3329525_LIG
26 27 1 0 0
SMALL
USER_CHARGES

@<TRIPOS>ATOM
   1 O1     220.6049 152.2009 176.1873   O.2      778 ligands_prepared   0.0000
   2 C2     219.5332 152.8009 176.1905   C.2      778 ligands_prepared   0.0000
   3 C3     219.0762 153.5744 177.3795   C.3      778 ligands_prepared   0.0000
   4 C4     218.8092 152.8075 178.6592   C.3      778 ligands_prepared   0.0000
   5 C5     219.9942 153.7276 178.5756   C.3      778 ligands_prepared   0.0000
   6 N6     218.7611 152.7852 175.0590   N.am     778 ligands_prepared   0.0000
   7 C7     219.2014 152.0799 173.8499   C.3      778 ligands_prepared   0.0000
   8 C8     218.1898 150.9983 173.4403   C.3      778 ligands_prepared   0.0000
   9 N9     216.8082 151.5915 173.3007   N.4      778 ligands_prepared   1.0000
  10 C10    216.4010 152.2437 174.5999   C.3      778 ligands_prepared   0.0000
  11 C11    217.4087 153.3425 174.9743   C.3      778 ligands_prepared   0.0000
  12 H12    218.4115 154.4086 177.1046   H        778 ligands_prepared   0.0000
  13 H13    217.9487 153.0753 179.2726   H        778 ligands_prepared   0.0000
  14 H14    218.9625 151.7273 178.6736   H        778 ligands_prepared   0.0000
  15 H15    220.0003 154.6711 179.1225   H        778 ligands_prepared   0.0000
  16 H16    221.0033 153.3187 178.5386   H        778 ligands_prepared   0.0000
  17 H17    219.3408 152.8251 173.0265   H        778 ligands_prepared   0.0000
  18 H18    220.2040 151.6067 174.0104   H        778 ligands_prepared   0.0000
  19 H19    218.4880 150.5400 172.4647   H        778 ligands_prepared   0.0000
  20 H20    218.1596 150.1659 174.1824   H        778 ligands_prepared   0.0000
  21 H21    216.1207 150.8477 173.0387   H        778 ligands_prepared   0.0000
  22 H22    216.7940 152.2934 172.5262   H        778 ligands_prepared   0.0000
  23 H23    216.3274 151.4674 175.3977   H        778 ligands_prepared   0.0000
  24 H24    215.3758 152.6749 174.4899   H        778 ligands_prepared   0.0000
  25 H25    217.0965 153.8138 175.9374   H        778 ligands_prepared   0.0000
  26 H26    217.3980 154.1674 174.2166   H        778 ligands_prepared   0.0000
@<TRIPOS>BOND
   1  1  2    2
   2  2  3    1
   3  2  6   am
   4  3  4    1
   5  3  5    1
   6  3 12    1
   7  4  5    1
   8  4 13    1
   9  4 14    1
  10  5 15    1
  11  5 16    1
  12  7  6    1
  13  6 11    1
  14  7  8    1
  15  7 17    1
  16  7 18    1
  17  8  9    1
  18  8 19    1
  19  8 20    1
  20  9 10    1
  21  9 21    1
  22  9 22    1
  23 10 11    1
  24 10 23    1
  25 10 24    1
  26 11 25    1
  27 11 26    1
