@<TRIPOS>MOLECULE
CHEMBL2179882_LIG
55 59 1 0 0
SMALL
USER_CHARGES

@<TRIPOS>ATOM
   1 C1     227.6499 156.3866 180.2747   C.3      778 ligands_prepared   0.0000
   2 O2     227.2009 155.4849 179.2660   O.3      778 ligands_prepared   0.0000
   3 C3     226.5457 156.0267 178.2111   C.ar     778 ligands_prepared   0.0000
   4 C4     226.6387 157.3270 177.7327   C.ar     778 ligands_prepared   0.0000
   5 C5     225.8880 157.7313 176.6132   C.ar     778 ligands_prepared   0.0000
   6 C6     225.0405 156.8651 175.9404   C.ar     778 ligands_prepared   0.0000
   7 C7     224.9281 155.5569 176.4162   C.ar     778 ligands_prepared   0.0000
   8 C8     224.1637 154.3897 176.0303   C.2      778 ligands_prepared   0.0000
   9 C9     224.4746 153.4197 176.9356   C.2      778 ligands_prepared   0.0000
  10 C10    224.0082 152.0450 177.1836   C.2      778 ligands_prepared   0.0000
  11 O11    224.7531 151.0778 177.0835   O.2      778 ligands_prepared   0.0000
  12 N12    222.6979 151.9104 177.5619   N.am     778 ligands_prepared   0.0000
  13 C13    221.8685 153.1046 177.7203   C.3      778 ligands_prepared   0.0000
  14 C14    221.7390 153.5041 179.2147   C.3      778 ligands_prepared   0.0000
  15 C15    220.8712 152.4873 179.9678   C.3      778 ligands_prepared   0.0000
  16 C16    219.4548 152.4713 179.3747   C.3      778 ligands_prepared   0.0000
  17 N17    219.4019 153.3509 178.1392   N.4      778 ligands_prepared   1.0000
  18 C18    219.6982 154.7851 178.5341   C.3      778 ligands_prepared   0.0000
  19 C19    221.0541 154.8778 179.2464   C.3      778 ligands_prepared   0.0000
  20 C20    220.4403 152.8363 177.1493   C.3      778 ligands_prepared   0.0000
  21 C21    220.2376 153.4872 175.7725   C.3      778 ligands_prepared   0.0000
  22 C22    219.1100 152.7901 175.0898   C.ar     778 ligands_prepared   0.0000
  23 C23    219.3588 151.9038 174.0353   C.ar     778 ligands_prepared   0.0000
  24 C24    218.2846 151.3269 173.3671   C.ar     778 ligands_prepared   0.0000
  25 C25    216.9865 151.6495 173.7768   C.ar     778 ligands_prepared   0.0000
  26 N26    216.7388 152.4773 174.8145   N.ar     778 ligands_prepared   0.0000
  27 C27    217.7796 153.0312 175.4612   C.ar     778 ligands_prepared   0.0000
  28 O28    225.4045 153.8458 177.8861   O.3      778 ligands_prepared   0.0000
  29 C29    225.6703 155.1584 177.5490   C.ar     778 ligands_prepared   0.0000
  30 H30    228.3174 157.1486 179.8581   H        778 ligands_prepared   0.0000
  31 H31    226.7996 156.8406 180.7957   H        778 ligands_prepared   0.0000
  32 H32    228.2051 155.7158 180.9466   H        778 ligands_prepared   0.0000
  33 H33    227.2924 158.0516 178.2176   H        778 ligands_prepared   0.0000
  34 H34    225.9807 158.7652 176.2714   H        778 ligands_prepared   0.0000
  35 H35    224.4732 157.1842 175.0670   H        778 ligands_prepared   0.0000
  36 H36    223.4933 154.3375 175.1893   H        778 ligands_prepared   0.0000
  37 H37    222.3039 151.0126 177.8458   H        778 ligands_prepared   0.0000
  38 H38    222.3462 153.9607 177.1595   H        778 ligands_prepared   0.0000
  39 H39    222.7506 153.5631 179.6831   H        778 ligands_prepared   0.0000
  40 H40    221.3234 151.4752 179.9308   H        778 ligands_prepared   0.0000
  41 H41    220.8329 152.7380 181.0482   H        778 ligands_prepared   0.0000
  42 H42    219.1355 151.4403 179.0953   H        778 ligands_prepared   0.0000
  43 H43    218.6998 152.8380 180.1053   H        778 ligands_prepared   0.0000
  44 H44    218.4434 153.2977 177.7019   H        778 ligands_prepared   0.0000
  45 H45    218.8706 155.1469 179.1887   H        778 ligands_prepared   0.0000
  46 H46    219.6656 155.4247 177.6226   H        778 ligands_prepared   0.0000
  47 H47    220.9246 155.2216 180.2917   H        778 ligands_prepared   0.0000
  48 H48    221.6937 155.6491 178.7695   H        778 ligands_prepared   0.0000
  49 H49    220.2690 151.7258 177.0556   H        778 ligands_prepared   0.0000
  50 H50    220.0198 154.5764 175.8717   H        778 ligands_prepared   0.0000
  51 H51    221.1703 153.4600 175.1637   H        778 ligands_prepared   0.0000
  52 H52    220.3860 151.6758 173.7385   H        778 ligands_prepared   0.0000
  53 H53    218.4495 150.6421 172.5357   H        778 ligands_prepared   0.0000
  54 H54    216.1033 151.2412 173.2636   H        778 ligands_prepared   0.0000
  55 H55    217.5310 153.6964 176.3012   H        778 ligands_prepared   0.0000
@<TRIPOS>BOND
   1  1  2    1
   2  1 30    1
   3  1 31    1
   4  1 32    1
   5  2  3    1
   6  3  4   ar
   7  3 29   ar
   8  4  5   ar
   9  4 33    1
  10  5  6   ar
  11  5 34    1
  12  6  7   ar
  13  6 35    1
  14  7  8    1
  15  7 29   ar
  16  8  9    2
  17  8 36    1
  18  9 10    1
  19  9 28    1
  20 10 11    2
  21 10 12   am
  22 12 13    1
  23 12 37    1
  24 13 14    1
  25 13 20    1
  26 13 38    1
  27 14 15    1
  28 14 19    1
  29 14 39    1
  30 15 16    1
  31 15 40    1
  32 15 41    1
  33 16 17    1
  34 16 42    1
  35 16 43    1
  36 17 18    1
  37 17 20    1
  38 17 44    1
  39 18 19    1
  40 18 45    1
  41 18 46    1
  42 19 47    1
  43 19 48    1
  44 20 21    1
  45 20 49    1
  46 21 22    1
  47 21 50    1
  48 21 51    1
  49 22 23   ar
  50 22 27   ar
  51 23 24   ar
  52 23 52    1
  53 24 25   ar
  54 24 53    1
  55 25 26   ar
  56 25 54    1
  57 26 27   ar
  58 27 55    1
  59 28 29    1
