@<TRIPOS>MOLECULE
CHEMBL2381564_ncw_LIG
33 34 1 0 0
SMALL
USER_CHARGES

@<TRIPOS>ATOM
   1 C1     219.1001 151.6079 173.7768   C.3      778 ligands_prepared   0.0000
   2 N2     218.0706 151.8501 174.8352   N.4      778 ligands_prepared   1.0000
   3 C3     216.5343 151.6219 174.0712   C.3      778 ligands_prepared   0.0000
   4 C4     216.2000 153.0988 173.8402   C.3      778 ligands_prepared   0.0000
   5 C5     216.6960 153.8374 175.0864   C.3      778 ligands_prepared   0.0000
   6 C6     218.1126 153.3035 175.3128   C.3      778 ligands_prepared   0.0000
   7 C7     218.5717 153.3748 176.7736   C.3      778 ligands_prepared   0.0000
   8 O8     219.9082 152.9031 176.8680   O.3      778 ligands_prepared   0.0000
   9 C9     220.6237 153.2597 177.9640   C.2      778 ligands_prepared   0.0000
  10 O10    220.0923 153.6522 178.9764   O.2      778 ligands_prepared   0.0000
  11 C11    222.0600 153.0984 177.7220   C.ar     778 ligands_prepared   0.0000
  12 C12    222.9028 154.2001 177.5437   C.ar     778 ligands_prepared   0.0000
  13 C13    224.2694 153.9857 177.3617   C.ar     778 ligands_prepared   0.0000
  14 C14    224.7038 152.6631 177.3660   C.ar     778 ligands_prepared   0.0000
  15 Cl15   226.3674 152.3081 177.1820   Cl       778 ligands_prepared   0.0000
  16 N16    223.9105 151.5853 177.5094   N.ar     778 ligands_prepared   0.0000
  17 C17    222.5940 151.7978 177.6850   C.ar     778 ligands_prepared   0.0000
  18 H18    220.1128 151.8642 174.1468   H        778 ligands_prepared   0.0000
  19 H19    219.1099 150.5408 173.4822   H        778 ligands_prepared   0.0000
  20 H20    218.9096 152.2117 172.8703   H        778 ligands_prepared   0.0000
  21 H21    218.2566 151.2063 175.6487   H        778 ligands_prepared   0.0000
  22 H22    215.7881 151.1253 174.7313   H        778 ligands_prepared   0.0000
  23 H23    216.5513 151.0465 173.1213   H        778 ligands_prepared   0.0000
  24 H24    215.1164 153.2508 173.6771   H        778 ligands_prepared   0.0000
  25 H25    216.6921 153.4824 172.9257   H        778 ligands_prepared   0.0000
  26 H26    216.6966 154.9368 174.9464   H        778 ligands_prepared   0.0000
  27 H27    216.0355 153.6524 175.9556   H        778 ligands_prepared   0.0000
  28 H28    218.8361 153.8726 174.6604   H        778 ligands_prepared   0.0000
  29 H29    217.9188 152.8095 177.4698   H        778 ligands_prepared   0.0000
  30 H30    218.6724 154.4170 177.1523   H        778 ligands_prepared   0.0000
  31 H31    222.5011 155.2223 177.5492   H        778 ligands_prepared   0.0000
  32 H32    224.9544 154.8274 177.2300   H        778 ligands_prepared   0.0000
  33 H33    221.9597 150.9019 177.8000   H        778 ligands_prepared   0.0000
@<TRIPOS>BOND
   1  1  2    1
   2  1 18    1
   3  1 19    1
   4  1 20    1
   5  2  3    1
   6  2  6    1
   7  2 21    1
   8  3  4    1
   9  3 22    1
  10  3 23    1
  11  4  5    1
  12  4 24    1
  13  4 25    1
  14  5  6    1
  15  5 26    1
  16  5 27    1
  17  6  7    1
  18  6 28    1
  19  7  8    1
  20  7 29    1
  21  7 30    1
  22  8  9    1
  23  9 10    2
  24  9 11    1
  25 11 12   ar
  26 11 17   ar
  27 12 13   ar
  28 12 31    1
  29 13 14   ar
  30 13 32    1
  31 14 15    1
  32 14 16   ar
  33 16 17   ar
  34 17 33    1
