@<TRIPOS>MOLECULE
CHEMBL2179846_LIG
52 55 1 0 0
SMALL
USER_CHARGES

@<TRIPOS>ATOM
   1 O1     223.6310 152.5598 176.3933   O.2      778 ligands_prepared   0.0000
   2 C2     223.1909 153.4797 177.0720   C.2      778 ligands_prepared   0.0000
   3 N3     223.8799 154.6675 177.1471   N.am     778 ligands_prepared   0.0000
   4 C4     225.1163 154.8436 176.3858   C.3      778 ligands_prepared   0.0000
   5 C5     226.2485 153.9492 176.9462   C.3      778 ligands_prepared   0.0000
   6 C6     227.4718 154.1413 176.0363   C.3      778 ligands_prepared   0.0000
   7 C7     227.9405 155.6017 176.1093   C.3      778 ligands_prepared   0.0000
   8 N8     227.0009 156.4144 176.9790   N.4      778 ligands_prepared   1.0000
   9 C9     227.0285 155.8512 178.3900   C.3      778 ligands_prepared   0.0000
  10 C10    226.6275 154.3697 178.3725   C.3      778 ligands_prepared   0.0000
  11 C11    225.5668 156.3425 176.4616   C.3      778 ligands_prepared   0.0000
  12 C12    225.4348 157.0180 175.0936   C.3      778 ligands_prepared   0.0000
  13 C13    226.0903 158.3549 175.0590   C.ar     778 ligands_prepared   0.0000
  14 C14    225.7037 159.3673 175.9394   C.ar     778 ligands_prepared   0.0000
  15 C15    226.3309 160.6087 175.8676   C.ar     778 ligands_prepared   0.0000
  16 C16    227.3340 160.8009 174.9112   C.ar     778 ligands_prepared   0.0000
  17 N17    227.7319 159.8202 174.0750   N.ar     778 ligands_prepared   0.0000
  18 C18    227.1262 158.6205 174.1501   C.ar     778 ligands_prepared   0.0000
  19 C19    221.9345 153.3675 177.8493   C.ar     778 ligands_prepared   0.0000
  20 C20    220.7630 152.8725 177.2757   C.ar     778 ligands_prepared   0.0000
  21 C21    219.6010 152.7996 178.0375   C.ar     778 ligands_prepared   0.0000
  22 C22    219.6094 153.2135 179.3704   C.ar     778 ligands_prepared   0.0000
  23 C23    218.3622 153.1451 180.2030   C.3      778 ligands_prepared   0.0000
  24 O24    218.4322 154.0051 181.3203   O.3      778 ligands_prepared   0.0000
  25 C25    220.7922 153.6805 179.9490   C.ar     778 ligands_prepared   0.0000
  26 C26    221.9566 153.7525 179.1927   C.ar     778 ligands_prepared   0.0000
  27 H27    223.5391 155.4591 177.6850   H        778 ligands_prepared   0.0000
  28 H28    224.9229 154.5625 175.3108   H        778 ligands_prepared   0.0000
  29 H29    225.9247 152.8804 176.9352   H        778 ligands_prepared   0.0000
  30 H30    228.2894 153.4566 176.3434   H        778 ligands_prepared   0.0000
  31 H31    227.2398 153.8524 174.9914   H        778 ligands_prepared   0.0000
  32 H32    228.9679 155.6766 176.5407   H        778 ligands_prepared   0.0000
  33 H33    228.0001 156.0637 175.0993   H        778 ligands_prepared   0.0000
  34 H34    227.3079 157.4217 176.9886   H        778 ligands_prepared   0.0000
  35 H35    226.3483 156.4562 179.0346   H        778 ligands_prepared   0.0000
  36 H36    228.0511 155.9924 178.8093   H        778 ligands_prepared   0.0000
  37 H37    227.4644 153.7385 178.7398   H        778 ligands_prepared   0.0000
  38 H38    225.8053 154.1735 179.0883   H        778 ligands_prepared   0.0000
  39 H39    224.9288 156.8920 177.2099   H        778 ligands_prepared   0.0000
  40 H40    224.3406 157.1143 174.8554   H        778 ligands_prepared   0.0000
  41 H41    225.8136 156.3571 174.2808   H        778 ligands_prepared   0.0000
  42 H42    224.9217 159.1899 176.6832   H        778 ligands_prepared   0.0000
  43 H43    226.0468 161.4166 176.5426   H        778 ligands_prepared   0.0000
  44 H44    227.8472 161.7670 174.8028   H        778 ligands_prepared   0.0000
  45 H45    227.4911 157.8491 173.4558   H        778 ligands_prepared   0.0000
  46 H46    220.7519 152.5322 176.2375   H        778 ligands_prepared   0.0000
  47 H47    218.6852 152.4194 177.5784   H        778 ligands_prepared   0.0000
  48 H48    217.4631 153.4012 179.6016   H        778 ligands_prepared   0.0000
  49 H49    218.2133 152.1468 180.6680   H        778 ligands_prepared   0.0000
  50 H50    218.3991 153.4990 182.1650   H        778 ligands_prepared   0.0000
  51 H51    220.8088 153.9940 180.9963   H        778 ligands_prepared   0.0000
  52 H52    222.8869 154.1108 179.6440   H        778 ligands_prepared   0.0000
@<TRIPOS>BOND
   1  1  2    2
   2  2  3   am
   3  2 19    1
   4  3  4    1
   5  3 27    1
   6  4  5    1
   7  4 11    1
   8  4 28    1
   9  5  6    1
  10  5 10    1
  11  5 29    1
  12  6  7    1
  13  6 30    1
  14  6 31    1
  15  7  8    1
  16  7 32    1
  17  7 33    1
  18  8  9    1
  19  8 11    1
  20  8 34    1
  21  9 10    1
  22  9 35    1
  23  9 36    1
  24 10 37    1
  25 10 38    1
  26 11 12    1
  27 11 39    1
  28 12 13    1
  29 12 40    1
  30 12 41    1
  31 13 14   ar
  32 13 18   ar
  33 14 15   ar
  34 14 42    1
  35 15 16   ar
  36 15 43    1
  37 16 17   ar
  38 16 44    1
  39 17 18   ar
  40 18 45    1
  41 19 20   ar
  42 19 26   ar
  43 20 21   ar
  44 20 46    1
  45 21 22   ar
  46 21 47    1
  47 22 23    1
  48 22 25   ar
  49 23 24    1
  50 23 48    1
  51 23 49    1
  52 24 50    1
  53 25 26   ar
  54 25 51    1
  55 26 52    1
