@<TRIPOS>MOLECULE
CHEMBL2180255_LIG
54 58 1 0 0
SMALL
USER_CHARGES

@<TRIPOS>ATOM
   1 C1     226.3758 161.5327 170.4874   C.3      778 ligands_prepared   0.0000
   2 C2     225.0419 161.6366 171.0865   C.2      778 ligands_prepared   0.0000
   3 C3     224.6330 161.2724 172.3426   C.2      778 ligands_prepared   0.0000
   4 C4     225.2755 160.6843 173.5220   C.2      778 ligands_prepared   0.0000
   5 O5     224.7345 160.6507 174.6181   O.2      778 ligands_prepared   0.0000
   6 N6     226.5323 160.1679 173.3290   N.am     778 ligands_prepared   0.0000
   7 C7     227.2583 159.5289 174.4230   C.3      778 ligands_prepared   0.0000
   8 C8     228.7446 159.2977 174.0486   C.3      778 ligands_prepared   0.0000
   9 C9     228.8699 158.2957 172.8943   C.3      778 ligands_prepared   0.0000
  10 C10    228.2062 156.9672 173.2830   C.3      778 ligands_prepared   0.0000
  11 N11    227.6578 157.0544 174.6955   N.4      778 ligands_prepared   1.0000
  12 C12    228.7961 157.3682 175.6481   C.3      778 ligands_prepared   0.0000
  13 C13    229.4364 158.7169 175.2898   C.3      778 ligands_prepared   0.0000
  14 C14    226.5929 158.1468 174.7330   C.3      778 ligands_prepared   0.0000
  15 C15    225.8799 158.1687 176.0882   C.3      778 ligands_prepared   0.0000
  16 C16    225.7556 156.8023 176.6728   C.ar     778 ligands_prepared   0.0000
  17 C17    226.3416 156.4820 177.8983   C.ar     778 ligands_prepared   0.0000
  18 C18    226.2009 155.1923 178.4046   C.ar     778 ligands_prepared   0.0000
  19 C19    225.4666 154.2565 177.6659   C.ar     778 ligands_prepared   0.0000
  20 N20    224.8850 154.5622 176.4891   N.ar     778 ligands_prepared   0.0000
  21 C21    225.0230 155.8094 176.0026   C.ar     778 ligands_prepared   0.0000
  22 O22    223.2771 161.5467 172.5643   O.3      778 ligands_prepared   0.0000
  23 C23    222.8249 162.1014 171.3883   C.ar     778 ligands_prepared   0.0000
  24 C24    221.5222 162.5351 171.1629   C.ar     778 ligands_prepared   0.0000
  25 C25    221.2623 163.0722 169.9114   C.ar     778 ligands_prepared   0.0000
  26 C26    222.2972 163.1450 168.9582   C.ar     778 ligands_prepared   0.0000
  27 F27    221.9989 163.6599 167.7712   F        778 ligands_prepared   0.0000
  28 C28    223.6007 162.7170 169.1736   C.ar     778 ligands_prepared   0.0000
  29 C29    223.8673 162.1827 170.4326   C.ar     778 ligands_prepared   0.0000
  30 H30    227.1861 161.7882 171.1910   H        778 ligands_prepared   0.0000
  31 H31    226.5019 162.2010 169.6162   H        778 ligands_prepared   0.0000
  32 H32    226.5863 160.5123 170.1146   H        778 ligands_prepared   0.0000
  33 H33    226.9789 160.1717 172.4162   H        778 ligands_prepared   0.0000
  34 H34    227.2141 160.1901 175.3384   H        778 ligands_prepared   0.0000
  35 H35    229.2148 160.2692 173.7637   H        778 ligands_prepared   0.0000
  36 H36    229.9420 158.1353 172.6490   H        778 ligands_prepared   0.0000
  37 H37    228.4363 158.6965 171.9581   H        778 ligands_prepared   0.0000
  38 H38    227.3779 156.6991 172.5874   H        778 ligands_prepared   0.0000
  39 H39    228.9299 156.1200 173.2334   H        778 ligands_prepared   0.0000
  40 H40    227.2138 156.1378 174.9651   H        778 ligands_prepared   0.0000
  41 H41    228.4127 157.3599 176.6933   H        778 ligands_prepared   0.0000
  42 H42    229.5402 156.5376 175.5907   H        778 ligands_prepared   0.0000
  43 H43    229.3756 159.4204 176.1456   H        778 ligands_prepared   0.0000
  44 H44    230.5226 158.5931 175.1017   H        778 ligands_prepared   0.0000
  45 H45    225.8458 157.8946 173.9272   H        778 ligands_prepared   0.0000
  46 H46    224.8625 158.6194 175.9517   H        778 ligands_prepared   0.0000
  47 H47    226.3765 158.8726 176.7946   H        778 ligands_prepared   0.0000
  48 H48    226.8992 157.2342 178.4641   H        778 ligands_prepared   0.0000
  49 H49    226.6522 154.9142 179.3576   H        778 ligands_prepared   0.0000
  50 H50    225.3308 153.2238 178.0194   H        778 ligands_prepared   0.0000
  51 H51    224.5239 156.0156 175.0444   H        778 ligands_prepared   0.0000
  52 H52    220.7529 162.4572 171.9328   H        778 ligands_prepared   0.0000
  53 H53    220.2596 163.4392 169.6668   H        778 ligands_prepared   0.0000
  54 H54    224.3792 162.7896 168.4122   H        778 ligands_prepared   0.0000
@<TRIPOS>BOND
   1  1  2    1
   2  1 30    1
   3  1 31    1
   4  1 32    1
   5  2  3    2
   6  2 29    1
   7  3  4    1
   8  3 22    1
   9  4  5    2
  10  4  6   am
  11  6  7    1
  12  6 33    1
  13  7  8    1
  14  7 14    1
  15  7 34    1
  16  8  9    1
  17  8 13    1
  18  8 35    1
  19  9 10    1
  20  9 36    1
  21  9 37    1
  22 10 11    1
  23 10 38    1
  24 10 39    1
  25 11 12    1
  26 11 14    1
  27 11 40    1
  28 12 13    1
  29 12 41    1
  30 12 42    1
  31 13 43    1
  32 13 44    1
  33 14 15    1
  34 14 45    1
  35 15 16    1
  36 15 46    1
  37 15 47    1
  38 16 17   ar
  39 16 21   ar
  40 17 18   ar
  41 17 48    1
  42 18 19   ar
  43 18 49    1
  44 19 20   ar
  45 19 50    1
  46 20 21   ar
  47 21 51    1
  48 22 23    1
  49 23 24   ar
  50 23 29   ar
  51 24 25   ar
  52 24 52    1
  53 25 26   ar
  54 25 53    1
  55 26 27    1
  56 26 28   ar
  57 28 29   ar
  58 28 54    1
