@<TRIPOS>MOLECULE
CHEMBL2381571_nacw_LIG
34 35 1 0 0
SMALL
USER_CHARGES

@<TRIPOS>ATOM
   1 C1     225.1013 156.0349 176.3526   C.3      778 ligands_prepared   0.0000
   2 N2     225.0974 154.9318 177.3662   N.4      778 ligands_prepared   1.0000
   3 C3     226.3214 154.1786 177.6701   C.3      778 ligands_prepared   0.0000
   4 C4     225.8861 152.7169 177.5076   C.3      778 ligands_prepared   0.0000
   5 C5     224.7767 152.7037 176.4433   C.3      778 ligands_prepared   0.0000
   6 C6     223.7997 153.8161 176.8424   C.3      778 ligands_prepared   0.0000
   7 C7     222.7088 153.3923 177.8190   C.3      778 ligands_prepared   0.0000
   8 O8     221.6000 152.8536 177.1124   O.3      778 ligands_prepared   0.0000
   9 C9     220.3430 153.1776 177.4985   C.2      778 ligands_prepared   0.0000
  10 O10    220.0945 153.6174 178.5989   O.2      778 ligands_prepared   0.0000
  11 C11    219.4008 152.9338 176.3954   C.ar     778 ligands_prepared   0.0000
  12 C12    218.0897 153.3992 176.5270   C.ar     778 ligands_prepared   0.0000
  13 C13    217.1827 153.2037 175.4894   C.ar     778 ligands_prepared   0.0000
  14 C14    217.6116 152.5408 174.3452   C.ar     778 ligands_prepared   0.0000
  15 Br15   216.3714 152.2654 172.9293   Br       778 ligands_prepared   0.0000
  16 C16    218.9083 152.0662 174.1999   C.ar     778 ligands_prepared   0.0000
  17 C17    219.8130 152.2659 175.2396   C.ar     778 ligands_prepared   0.0000
  18 H18    225.4388 155.6764 175.3649   H        778 ligands_prepared   0.0000
  19 H19    225.7617 156.8643 176.6704   H        778 ligands_prepared   0.0000
  20 H20    224.0855 156.4600 176.2366   H        778 ligands_prepared   0.0000
  21 H21    224.8446 155.3315 178.3051   H        778 ligands_prepared   0.0000
  22 H22    226.7385 154.3913 178.6778   H        778 ligands_prepared   0.0000
  23 H23    227.1126 154.4587 176.9392   H        778 ligands_prepared   0.0000
  24 H24    225.5256 152.2922 178.4637   H        778 ligands_prepared   0.0000
  25 H25    226.7427 152.0835 177.2051   H        778 ligands_prepared   0.0000
  26 H26    225.1834 152.8803 175.4288   H        778 ligands_prepared   0.0000
  27 H27    224.2858 151.7148 176.3971   H        778 ligands_prepared   0.0000
  28 H28    223.2864 154.2156 175.9144   H        778 ligands_prepared   0.0000
  29 H29    223.0205 152.5490 178.4750   H        778 ligands_prepared   0.0000
  30 H30    222.4066 154.2443 178.4662   H        778 ligands_prepared   0.0000
  31 H31    217.7806 153.9166 177.4413   H        778 ligands_prepared   0.0000
  32 H32    216.1583 153.5743 175.5936   H        778 ligands_prepared   0.0000
  33 H33    219.2381 151.5460 173.2941   H        778 ligands_prepared   0.0000
  34 H34    220.8403 151.8956 175.1494   H        778 ligands_prepared   0.0000
@<TRIPOS>BOND
   1  1  2    1
   2  1 18    1
   3  1 19    1
   4  1 20    1
   5  2  3    1
   6  2  6    1
   7  2 21    1
   8  3  4    1
   9  3 22    1
  10  3 23    1
  11  4  5    1
  12  4 24    1
  13  4 25    1
  14  5  6    1
  15  5 26    1
  16  5 27    1
  17  6  7    1
  18  6 28    1
  19  7  8    1
  20  7 29    1
  21  7 30    1
  22  8  9    1
  23  9 10    2
  24  9 11    1
  25 11 12   ar
  26 11 17   ar
  27 12 13   ar
  28 12 31    1
  29 13 14   ar
  30 13 32    1
  31 14 15    1
  32 14 16   ar
  33 16 17   ar
  34 16 33    1
  35 17 34    1
