@<TRIPOS>MOLECULE
CHEMBL3094070_LIG
35 36 1 0 0
SMALL
USER_CHARGES

@<TRIPOS>ATOM
   1 C1     218.3946 152.9557 178.5666   C.3      778 ligands_prepared   0.0000
   2 C2     219.5928 153.6879 177.9563   C.3      778 ligands_prepared   0.0000
   3 C3     220.7797 153.7099 178.9214   C.3      778 ligands_prepared   0.0000
   4 C4     219.9995 152.9600 176.6827   C.2      778 ligands_prepared   0.0000
   5 O5     221.1127 152.4490 176.5692   O.2      778 ligands_prepared   0.0000
   6 N6     219.1047 152.7950 175.6557   N.am     778 ligands_prepared   0.0000
   7 C7     219.5272 152.1333 174.4078   C.3      778 ligands_prepared   0.0000
   8 C8     218.4621 151.1311 173.9008   C.3      778 ligands_prepared   0.0000
   9 C9     217.8816 151.5864 172.5471   C.3      778 ligands_prepared   0.0000
  10 N10    216.4047 151.9018 172.6301   N.4      778 ligands_prepared   1.0000
  11 C11    216.0943 152.8553 173.7629   C.3      778 ligands_prepared   0.0000
  12 C12    216.7016 152.3943 175.1015   C.3      778 ligands_prepared   0.0000
  13 C13    217.3565 151.0165 174.9554   C.3      778 ligands_prepared   0.0000
  14 C14    217.7683 153.3981 175.6061   C.3      778 ligands_prepared   0.0000
  15 H15    218.0807 153.4318 179.5063   H        778 ligands_prepared   0.0000
  16 H16    217.5265 152.9605 177.8955   H        778 ligands_prepared   0.0000
  17 H17    218.6324 151.9071 178.7928   H        778 ligands_prepared   0.0000
  18 H18    219.3091 154.7461 177.7255   H        778 ligands_prepared   0.0000
  19 H19    221.1324 152.6962 179.1521   H        778 ligands_prepared   0.0000
  20 H20    220.5094 154.1959 179.8684   H        778 ligands_prepared   0.0000
  21 H21    221.6304 154.2596 178.4963   H        778 ligands_prepared   0.0000
  22 H22    219.7426 152.8941 173.6213   H        778 ligands_prepared   0.0000
  23 H23    220.4870 151.5950 174.5978   H        778 ligands_prepared   0.0000
  24 H24    218.9588 150.1363 173.7693   H        778 ligands_prepared   0.0000
  25 H25    218.4185 152.4842 172.1611   H        778 ligands_prepared   0.0000
  26 H26    218.0156 150.7889 171.7744   H        778 ligands_prepared   0.0000
  27 H27    215.8635 151.0160 172.7597   H        778 ligands_prepared   0.0000
  28 H28    216.0807 152.3142 171.7236   H        778 ligands_prepared   0.0000
  29 H29    216.4528 153.8718 173.4828   H        778 ligands_prepared   0.0000
  30 H30    214.9821 152.9372 173.8440   H        778 ligands_prepared   0.0000
  31 H31    215.8883 152.3442 175.8704   H        778 ligands_prepared   0.0000
  32 H32    217.7774 150.6812 175.9267   H        778 ligands_prepared   0.0000
  33 H33    216.6184 150.2321 174.6981   H        778 ligands_prepared   0.0000
  34 H34    217.4936 153.7343 176.6386   H        778 ligands_prepared   0.0000
  35 H35    217.7599 154.3138 174.9748   H        778 ligands_prepared   0.0000
@<TRIPOS>BOND
   1  1  2    1
   2  1 15    1
   3  1 16    1
   4  1 17    1
   5  2  3    1
   6  2  4    1
   7  2 18    1
   8  3 19    1
   9  3 20    1
  10  3 21    1
  11  4  5    2
  12  4  6   am
  13  7  6    1
  14  6 14    1
  15  7  8    1
  16  7 22    1
  17  7 23    1
  18  8  9    1
  19  8 13    1
  20  8 24    1
  21  9 10    1
  22  9 25    1
  23  9 26    1
  24 10 11    1
  25 10 27    1
  26 10 28    1
  27 11 12    1
  28 11 29    1
  29 11 30    1
  30 12 13    1
  31 12 14    1
  32 12 31    1
  33 13 32    1
  34 13 33    1
  35 14 34    1
  36 14 35    1
