@<TRIPOS>MOLECULE
CHEMBL2179837_LIG
48 51 1 0 0
SMALL
USER_CHARGES

@<TRIPOS>ATOM
   1 O1     222.1767 153.0192 176.2715   O.2      778 ligands_prepared   0.0000
   2 C2     222.2250 153.5445 177.3732   C.2      778 ligands_prepared   0.0000
   3 N3     223.3149 154.2615 177.7864   N.am     778 ligands_prepared   0.0000
   4 C4     224.4911 154.4319 176.9378   C.3      778 ligands_prepared   0.0000
   5 C5     224.9267 153.0797 176.3140   C.3      778 ligands_prepared   0.0000
   6 C6     226.0832 153.3763 175.3495   C.3      778 ligands_prepared   0.0000
   7 C7     227.2441 154.0144 176.1245   C.3      778 ligands_prepared   0.0000
   8 N8     226.9014 154.1194 177.5996   N.4      778 ligands_prepared   1.0000
   9 C9     226.6143 152.7290 178.1404   C.3      778 ligands_prepared   0.0000
  10 C10    225.4162 152.1151 177.4021   C.3      778 ligands_prepared   0.0000
  11 C11    225.6614 154.9810 177.8164   C.3      778 ligands_prepared   0.0000
  12 C12    225.9562 156.4516 177.5094   C.3      778 ligands_prepared   0.0000
  13 C13    226.7260 157.0938 178.6141   C.ar     778 ligands_prepared   0.0000
  14 C14    227.0785 156.3755 179.7601   C.ar     778 ligands_prepared   0.0000
  15 C15    227.8012 157.0061 180.7655   C.ar     778 ligands_prepared   0.0000
  16 C16    228.1469 158.3542 180.6016   C.ar     778 ligands_prepared   0.0000
  17 N17    227.7974 159.0596 179.5081   N.ar     778 ligands_prepared   0.0000
  18 C18    227.1012 158.4439 178.5343   C.ar     778 ligands_prepared   0.0000
  19 C19    221.1191 153.4653 178.3595   C.ar     778 ligands_prepared   0.0000
  20 C20    221.3701 153.6731 179.7154   C.ar     778 ligands_prepared   0.0000
  21 C21    220.3223 153.5906 180.6311   C.ar     778 ligands_prepared   0.0000
  22 C22    219.0261 153.3036 180.2005   C.ar     778 ligands_prepared   0.0000
  23 C23    218.7545 153.0973 178.8494   C.ar     778 ligands_prepared   0.0000
  24 C24    219.8165 153.1840 177.9546   C.ar     778 ligands_prepared   0.0000
  25 F25    219.5890 152.9910 176.6618   F        778 ligands_prepared   0.0000
  26 H26    223.3534 154.6732 178.7193   H        778 ligands_prepared   0.0000
  27 H27    224.2529 155.1594 176.1091   H        778 ligands_prepared   0.0000
  28 H28    224.0684 152.6286 175.7614   H        778 ligands_prepared   0.0000
  29 H29    225.7519 154.0376 174.5228   H        778 ligands_prepared   0.0000
  30 H30    226.4128 152.4420 174.8497   H        778 ligands_prepared   0.0000
  31 H31    227.4905 155.0270 175.7332   H        778 ligands_prepared   0.0000
  32 H32    228.1775 153.4102 176.0248   H        778 ligands_prepared   0.0000
  33 H33    227.7107 154.5484 178.1162   H        778 ligands_prepared   0.0000
  34 H34    227.5308 152.1048 178.0198   H        778 ligands_prepared   0.0000
  35 H35    226.4341 152.7970 179.2380   H        778 ligands_prepared   0.0000
  36 H36    224.6036 151.8613 178.1108   H        778 ligands_prepared   0.0000
  37 H37    225.6993 151.1425 176.9465   H        778 ligands_prepared   0.0000
  38 H38    225.3907 154.8847 178.9083   H        778 ligands_prepared   0.0000
  39 H39    224.9854 156.9922 177.3608   H        778 ligands_prepared   0.0000
  40 H40    226.4662 156.5701 176.5269   H        778 ligands_prepared   0.0000
  41 H41    226.7870 155.3266 179.8674   H        778 ligands_prepared   0.0000
  42 H42    228.0947 156.4671 181.6671   H        778 ligands_prepared   0.0000
  43 H43    228.7189 158.8985 181.3679   H        778 ligands_prepared   0.0000
  44 H44    226.8349 159.0638 177.6658   H        778 ligands_prepared   0.0000
  45 H45    222.3852 153.8965 180.0581   H        778 ligands_prepared   0.0000
  46 H46    220.5209 153.7477 181.6940   H        778 ligands_prepared   0.0000
  47 H47    218.2133 153.2383 180.9308   H        778 ligands_prepared   0.0000
  48 H48    217.7420 152.8678 178.5092   H        778 ligands_prepared   0.0000
@<TRIPOS>BOND
   1  1  2    2
   2  2  3   am
   3  2 19    1
   4  3  4    1
   5  3 26    1
   6  4  5    1
   7  4 11    1
   8  4 27    1
   9  5  6    1
  10  5 10    1
  11  5 28    1
  12  6  7    1
  13  6 29    1
  14  6 30    1
  15  7  8    1
  16  7 31    1
  17  7 32    1
  18  8  9    1
  19  8 11    1
  20  8 33    1
  21  9 10    1
  22  9 34    1
  23  9 35    1
  24 10 36    1
  25 10 37    1
  26 11 12    1
  27 11 38    1
  28 12 13    1
  29 12 39    1
  30 12 40    1
  31 13 14   ar
  32 13 18   ar
  33 14 15   ar
  34 14 41    1
  35 15 16   ar
  36 15 42    1
  37 16 17   ar
  38 16 43    1
  39 17 18   ar
  40 18 44    1
  41 19 20   ar
  42 19 24   ar
  43 20 21   ar
  44 20 45    1
  45 21 22   ar
  46 21 46    1
  47 22 23   ar
  48 22 47    1
  49 23 24   ar
  50 23 48    1
  51 24 25    1
