@<TRIPOS>MOLECULE
CHEMBL3329530_LIG
26 27 1 0 0
SMALL
USER_CHARGES

@<TRIPOS>ATOM
   1 C1     219.8097 153.3934 178.7814   C.3      778 ligands_prepared   0.0000
   2 C2     218.8315 153.4002 177.6106   C.3      778 ligands_prepared   0.0000
   3 C3     219.4339 152.7162 176.4169   C.2      778 ligands_prepared   0.0000
   4 O4     220.5994 152.3338 176.3737   O.2      778 ligands_prepared   0.0000
   5 N5     218.6559 152.5103 175.3022   N.am     778 ligands_prepared   0.0000
   6 C6     217.2295 152.9033 175.3878   C.3      778 ligands_prepared   0.0000
   7 C7     216.4742 152.5394 174.1061   C.3      778 ligands_prepared   0.0000
   8 C8     217.2793 153.0453 172.8749   C.3      778 ligands_prepared   0.0000
   9 C9     218.1034 151.7325 173.0064   C.3      778 ligands_prepared   0.0000
  10 C10    219.1999 151.9150 174.0635   C.3      778 ligands_prepared   0.0000
  11 N11    216.8842 151.0932 173.7211   N.4      778 ligands_prepared   1.0000
  12 H12    220.7517 153.8904 178.5173   H        778 ligands_prepared   0.0000
  13 H13    219.3870 153.9153 179.6490   H        778 ligands_prepared   0.0000
  14 H14    220.0605 152.3682 179.0898   H        778 ligands_prepared   0.0000
  15 H15    217.8754 152.9037 177.8986   H        778 ligands_prepared   0.0000
  16 H16    218.5498 154.4460 177.3540   H        778 ligands_prepared   0.0000
  17 H17    217.1557 154.0058 175.5711   H        778 ligands_prepared   0.0000
  18 H18    216.7689 152.4085 176.2814   H        778 ligands_prepared   0.0000
  19 H19    215.3856 152.7118 174.1475   H        778 ligands_prepared   0.0000
  20 H20    216.6987 153.1378 171.9458   H        778 ligands_prepared   0.0000
  21 H21    217.8326 153.9831 173.0019   H        778 ligands_prepared   0.0000
  22 H22    218.4291 151.2078 172.0933   H        778 ligands_prepared   0.0000
  23 H23    220.0049 152.5769 173.6448   H        778 ligands_prepared   0.0000
  24 H24    219.6841 150.9325 174.2959   H        778 ligands_prepared   0.0000
  25 H25    216.2202 150.6222 173.0850   H        778 ligands_prepared   0.0000
  26 H26    217.0978 150.4561 174.5017   H        778 ligands_prepared   0.0000
@<TRIPOS>BOND
   1  1  2    1
   2  1 12    1
   3  1 13    1
   4  1 14    1
   5  2  3    1
   6  2 15    1
   7  2 16    1
   8  3  4    2
   9  3  5   am
  10  6  5    1
  11  5 10    1
  12  6  7    1
  13  6 17    1
  14  6 18    1
  15  7  8    1
  16  7 11    1
  17  7 19    1
  18  8  9    1
  19  8 20    1
  20  8 21    1
  21  9 10    1
  22  9 11    1
  23  9 22    1
  24 10 23    1
  25 10 24    1
  26 11 25    1
  27 11 26    1
