@<TRIPOS>MOLECULE
CHEMBL2179877_LIG
54 58 1 0 0
SMALL
USER_CHARGES

@<TRIPOS>ATOM
   1 O1     224.6940 151.2145 177.0466   O.2      778 ligands_prepared   0.0000
   2 C2     223.9556 152.1794 177.1923   C.2      778 ligands_prepared   0.0000
   3 N3     222.6307 152.0283 177.5066   N.am     778 ligands_prepared   0.0000
   4 C4     221.7492 153.1771 177.6915   C.3      778 ligands_prepared   0.0000
   5 C5     221.6566 153.5814 179.1867   C.3      778 ligands_prepared   0.0000
   6 C6     220.8073 154.8582 179.2632   C.3      778 ligands_prepared   0.0000
   7 C7     219.4076 154.5798 178.6956   C.3      778 ligands_prepared   0.0000
   8 N8     219.2954 153.1302 178.2636   N.4      778 ligands_prepared   1.0000
   9 C9     219.5542 152.2392 179.4659   C.3      778 ligands_prepared   0.0000
  10 C10    220.9734 152.4746 180.0011   C.3      778 ligands_prepared   0.0000
  11 C11    220.3207 152.7983 177.1822   C.3      778 ligands_prepared   0.0000
  12 C12    219.9887 153.5217 175.8738   C.3      778 ligands_prepared   0.0000
  13 C13    218.8960 152.8492 175.1137   C.ar     778 ligands_prepared   0.0000
  14 C14    219.1843 151.9442 174.0903   C.ar     778 ligands_prepared   0.0000
  15 C15    218.1393 151.3252 173.4115   C.ar     778 ligands_prepared   0.0000
  16 C16    216.8242 151.6294 173.7829   C.ar     778 ligands_prepared   0.0000
  17 N17    216.5361 152.4933 174.7769   N.ar     778 ligands_prepared   0.0000
  18 C18    217.5494 153.0890 175.4320   C.ar     778 ligands_prepared   0.0000
  19 C19    224.4030 153.5703 177.0507   C.2      778 ligands_prepared   0.0000
  20 C20    223.9671 154.4747 176.1206   C.2      778 ligands_prepared   0.0000
  21 C21    224.6132 155.7448 176.2426   C.2      778 ligands_prepared   0.0000
  22 C22    225.5293 155.7975 177.2632   C.2      778 ligands_prepared   0.0000
  23 C23    226.3653 156.9280 177.6291   C.ar     778 ligands_prepared   0.0000
  24 C24    226.3882 158.1278 176.8994   C.ar     778 ligands_prepared   0.0000
  25 C25    227.2058 159.1702 177.3364   C.ar     778 ligands_prepared   0.0000
  26 C26    227.9859 158.9983 178.4748   C.ar     778 ligands_prepared   0.0000
  27 C27    227.9226 157.7696 179.1445   C.ar     778 ligands_prepared   0.0000
  28 N28    227.1331 156.7603 178.7383   N.ar     778 ligands_prepared   0.0000
  29 S29    225.5883 154.2635 178.1018   S.3      778 ligands_prepared   0.0000
  30 H30    222.2248 151.1029 177.6545   H        778 ligands_prepared   0.0000
  31 H31    222.1504 154.0542 177.1066   H        778 ligands_prepared   0.0000
  32 H32    222.6791 153.7741 179.5865   H        778 ligands_prepared   0.0000
  33 H33    220.7363 155.2101 180.3127   H        778 ligands_prepared   0.0000
  34 H34    221.2925 155.6911 178.7143   H        778 ligands_prepared   0.0000
  35 H35    219.1739 155.2390 177.8305   H        778 ligands_prepared   0.0000
  36 H36    218.6160 154.7812 179.4580   H        778 ligands_prepared   0.0000
  37 H37    218.3311 152.9478 177.8829   H        778 ligands_prepared   0.0000
  38 H38    218.7845 152.4625 180.2424   H        778 ligands_prepared   0.0000
  39 H39    219.3933 151.1766 179.1710   H        778 ligands_prepared   0.0000
  40 H40    221.5654 151.5391 179.9786   H        778 ligands_prepared   0.0000
  41 H41    220.9384 152.7560 181.0745   H        778 ligands_prepared   0.0000
  42 H42    220.2550 151.6851 177.0132   H        778 ligands_prepared   0.0000
  43 H43    220.9161 153.5695 175.2467   H        778 ligands_prepared   0.0000
  44 H44    219.7511 154.5962 176.0573   H        778 ligands_prepared   0.0000
  45 H45    220.2218 151.7148 173.8257   H        778 ligands_prepared   0.0000
  46 H46    218.3369 150.6155 172.6068   H        778 ligands_prepared   0.0000
  47 H47    215.9627 151.1681 173.2787   H        778 ligands_prepared   0.0000
  48 H48    217.2650 153.7768 176.2409   H        778 ligands_prepared   0.0000
  49 H49    223.2174 154.2746 175.3605   H        778 ligands_prepared   0.0000
  50 H50    224.3902 156.5718 175.5740   H        778 ligands_prepared   0.0000
  51 H51    225.7869 158.2659 176.0018   H        778 ligands_prepared   0.0000
  52 H52    227.2301 160.1138 176.7826   H        778 ligands_prepared   0.0000
  53 H53    228.6319 159.7952 178.8425   H        778 ligands_prepared   0.0000
  54 H54    228.5232 157.5745 180.0455   H        778 ligands_prepared   0.0000
@<TRIPOS>BOND
   1  1  2    2
   2  2  3   am
   3  2 19    1
   4  3  4    1
   5  3 30    1
   6  4  5    1
   7  4 11    1
   8  4 31    1
   9  5  6    1
  10  5 10    1
  11  5 32    1
  12  6  7    1
  13  6 33    1
  14  6 34    1
  15  7  8    1
  16  7 35    1
  17  7 36    1
  18  8  9    1
  19  8 11    1
  20  8 37    1
  21  9 10    1
  22  9 38    1
  23  9 39    1
  24 10 40    1
  25 10 41    1
  26 11 12    1
  27 11 42    1
  28 12 13    1
  29 12 43    1
  30 12 44    1
  31 13 14   ar
  32 13 18   ar
  33 14 15   ar
  34 14 45    1
  35 15 16   ar
  36 15 46    1
  37 16 17   ar
  38 16 47    1
  39 17 18   ar
  40 18 48    1
  41 19 20    2
  42 19 29    1
  43 20 21    1
  44 20 49    1
  45 21 22    2
  46 21 50    1
  47 22 23    1
  48 22 29    1
  49 23 24   ar
  50 23 28   ar
  51 24 25   ar
  52 24 51    1
  53 25 26   ar
  54 25 52    1
  55 26 27   ar
  56 26 53    1
  57 27 28   ar
  58 27 54    1
