@<TRIPOS>MOLECULE
CHEMBL2180261_LIG
51 55 1 0 0
SMALL
USER_CHARGES

@<TRIPOS>ATOM
   1 O1     224.5939 151.0154 177.0278   O.2      778 ligands_prepared   0.0000
   2 C2     223.8859 151.9931 177.2198   C.2      778 ligands_prepared   0.0000
   3 N3     222.6419 151.8832 177.7799   N.am     778 ligands_prepared   0.0000
   4 C4     221.8016 153.0718 177.9051   C.3      778 ligands_prepared   0.0000
   5 C5     221.5759 153.4701 179.3870   C.3      778 ligands_prepared   0.0000
   6 C6     220.6072 152.4891 180.0581   C.3      778 ligands_prepared   0.0000
   7 C7     219.2226 152.6143 179.4052   C.3      778 ligands_prepared   0.0000
   8 N8     219.3296 153.4226 178.1230   N.4      778 ligands_prepared   1.0000
   9 C9     219.6978 154.8507 178.4771   C.3      778 ligands_prepared   0.0000
  10 C10    220.9463 154.8712 179.3730   C.3      778 ligands_prepared   0.0000
  11 C11    220.4098 152.7910 177.2521   C.3      778 ligands_prepared   0.0000
  12 C12    220.3261 153.3308 175.8182   C.3      778 ligands_prepared   0.0000
  13 C13    219.1315 152.7462 175.1398   C.ar     778 ligands_prepared   0.0000
  14 C14    217.8334 153.0852 175.5292   C.ar     778 ligands_prepared   0.0000
  15 C15    216.7526 152.5459 174.8352   C.ar     778 ligands_prepared   0.0000
  16 C16    217.0049 151.6770 173.7686   C.ar     778 ligands_prepared   0.0000
  17 N17    218.2544 151.3311 173.3958   N.ar     778 ligands_prepared   0.0000
  18 C18    219.2962 151.8537 174.0688   C.ar     778 ligands_prepared   0.0000
  19 C19    224.3448 153.3562 176.9118   C.2      778 ligands_prepared   0.0000
  20 C20    224.0509 154.2690 175.9435   C.2      778 ligands_prepared   0.0000
  21 C21    224.7706 155.4711 176.2978   C.ar     778 ligands_prepared   0.0000
  22 C22    224.8911 156.7457 175.7500   C.ar     778 ligands_prepared   0.0000
  23 C23    225.7161 157.6325 176.4238   C.ar     778 ligands_prepared   0.0000
  24 Cl24   225.8979 159.2100 175.7820   Cl       778 ligands_prepared   0.0000
  25 C25    226.4199 157.3295 177.5983   C.ar     778 ligands_prepared   0.0000
  26 C26    226.2926 156.0614 178.1451   C.ar     778 ligands_prepared   0.0000
  27 Br27   227.1977 155.5682 179.7175   Br       778 ligands_prepared   0.0000
  28 C28    225.4703 155.1532 177.4927   C.ar     778 ligands_prepared   0.0000
  29 O29    225.2155 153.8602 177.8849   O.3      778 ligands_prepared   0.0000
  30 H30    222.2744 151.0019 178.1323   H        778 ligands_prepared   0.0000
  31 H31    222.3005 153.9341 177.3713   H        778 ligands_prepared   0.0000
  32 H32    222.5501 153.4842 179.9304   H        778 ligands_prepared   0.0000
  33 H33    220.5392 152.6948 181.1468   H        778 ligands_prepared   0.0000
  34 H34    220.9848 151.4494 179.9937   H        778 ligands_prepared   0.0000
  35 H35    218.7833 151.6178 179.1701   H        778 ligands_prepared   0.0000
  36 H36    218.4963 153.1210 180.0819   H        778 ligands_prepared   0.0000
  37 H37    218.4054 153.4085 177.6130   H        778 ligands_prepared   0.0000
  38 H38    218.8250 155.3248 178.9847   H        778 ligands_prepared   0.0000
  39 H39    219.8555 155.4299 177.5382   H        778 ligands_prepared   0.0000
  40 H40    221.6706 155.6299 179.0151   H        778 ligands_prepared   0.0000
  41 H41    220.6866 155.1861 180.4035   H        778 ligands_prepared   0.0000
  42 H42    220.2069 151.6819 177.2363   H        778 ligands_prepared   0.0000
  43 H43    220.2620 154.4452 175.8205   H        778 ligands_prepared   0.0000
  44 H44    221.2591 153.1137 175.2498   H        778 ligands_prepared   0.0000
  45 H45    217.6669 153.7776 176.3589   H        778 ligands_prepared   0.0000
  46 H46    215.7290 152.8046 175.1091   H        778 ligands_prepared   0.0000
  47 H47    216.1879 151.2316 173.1816   H        778 ligands_prepared   0.0000
  48 H48    220.2957 151.5473 173.7316   H        778 ligands_prepared   0.0000
  49 H49    223.4173 154.1553 175.0805   H        778 ligands_prepared   0.0000
  50 H50    224.3539 157.0156 174.8360   H        778 ligands_prepared   0.0000
  51 H51    227.0561 158.0886 178.0730   H        778 ligands_prepared   0.0000
@<TRIPOS>BOND
   1  1  2    2
   2  2  3   am
   3  2 19    1
   4  3  4    1
   5  3 30    1
   6  4  5    1
   7  4 11    1
   8  4 31    1
   9  5  6    1
  10  5 10    1
  11  5 32    1
  12  6  7    1
  13  6 33    1
  14  6 34    1
  15  7  8    1
  16  7 35    1
  17  7 36    1
  18  8  9    1
  19  8 11    1
  20  8 37    1
  21  9 10    1
  22  9 38    1
  23  9 39    1
  24 10 40    1
  25 10 41    1
  26 11 12    1
  27 11 42    1
  28 12 13    1
  29 12 43    1
  30 12 44    1
  31 13 14   ar
  32 13 18   ar
  33 14 15   ar
  34 14 45    1
  35 15 16   ar
  36 15 46    1
  37 16 17   ar
  38 16 47    1
  39 17 18   ar
  40 18 48    1
  41 19 20    2
  42 19 29    1
  43 20 21    1
  44 20 49    1
  45 21 22   ar
  46 21 28   ar
  47 22 23   ar
  48 22 50    1
  49 23 24    1
  50 23 25   ar
  51 25 26   ar
  52 25 51    1
  53 26 27    1
  54 26 28   ar
  55 28 29    1
