@<TRIPOS>MOLECULE
CHEMBL2435283_LIG
43 46 1 0 0
SMALL
USER_CHARGES

@<TRIPOS>ATOM
   1 C1     224.4858 152.8204 177.1838   C.ar     778 ligands_prepared   0.0000
   2 C2     225.8299 152.6144 177.4884   C.ar     778 ligands_prepared   0.0000
   3 C3     226.7160 153.6900 177.5046   C.ar     778 ligands_prepared   0.0000
   4 C4     226.2509 154.9735 177.2115   C.ar     778 ligands_prepared   0.0000
   5 C5     227.1817 156.1121 177.2363   C.2      778 ligands_prepared   0.0000
   6 C6     227.8969 156.4937 176.1723   C.2      778 ligands_prepared   0.0000
   7 C7     228.8493 157.6542 176.2076   C.3      778 ligands_prepared   0.0000
   8 N8     229.5051 157.8169 174.8514   N.4      778 ligands_prepared   1.0000
   9 C9     228.4300 158.0622 173.8097   C.3      778 ligands_prepared   0.0000
  10 C10    227.4370 156.8879 173.7833   C.3      778 ligands_prepared   0.0000
  11 C11    227.8556 155.8334 174.8237   C.3      778 ligands_prepared   0.0000
  12 C12    229.2768 155.3467 174.4848   C.3      778 ligands_prepared   0.0000
  13 C13    230.2467 156.5404 174.5049   C.3      778 ligands_prepared   0.0000
  14 C14    227.2589 156.7937 178.5374   C.ar     778 ligands_prepared   0.0000
  15 C15    227.1228 158.1813 178.6044   C.ar     778 ligands_prepared   0.0000
  16 C16    227.2155 158.8247 179.8361   C.ar     778 ligands_prepared   0.0000
  17 C17    227.4438 158.0873 180.9962   C.ar     778 ligands_prepared   0.0000
  18 C18    227.5849 156.7010 180.9255   C.ar     778 ligands_prepared   0.0000
  19 C19    227.4921 156.0506 179.6968   C.ar     778 ligands_prepared   0.0000
  20 C20    224.9031 155.1843 176.9124   C.ar     778 ligands_prepared   0.0000
  21 C21    224.0229 154.1045 176.8990   C.ar     778 ligands_prepared   0.0000
  22 H22    223.7955 151.9756 177.1657   H        778 ligands_prepared   0.0000
  23 H23    226.1927 151.6108 177.7130   H        778 ligands_prepared   0.0000
  24 H24    227.7697 153.5371 177.7404   H        778 ligands_prepared   0.0000
  25 H25    228.3228 158.6037 176.4768   H        778 ligands_prepared   0.0000
  26 H26    229.6419 157.5064 176.9823   H        778 ligands_prepared   0.0000
  27 H27    230.1763 158.6280 174.8741   H        778 ligands_prepared   0.0000
  28 H28    227.9160 159.0225 174.0457   H        778 ligands_prepared   0.0000
  29 H29    228.9197 158.2025 172.8194   H        778 ligands_prepared   0.0000
  30 H30    226.4078 157.2442 173.9818   H        778 ligands_prepared   0.0000
  31 H31    227.4036 156.4301 172.7746   H        778 ligands_prepared   0.0000
  32 H32    227.1429 154.9757 174.8074   H        778 ligands_prepared   0.0000
  33 H33    229.2815 154.8565 173.4907   H        778 ligands_prepared   0.0000
  34 H34    229.6029 154.5675 175.2004   H        778 ligands_prepared   0.0000
  35 H35    231.0601 156.3869 175.2510   H        778 ligands_prepared   0.0000
  36 H36    230.7447 156.6748 173.5183   H        778 ligands_prepared   0.0000
  37 H37    226.9442 158.7522 177.6927   H        778 ligands_prepared   0.0000
  38 H38    227.1057 159.9095 179.8908   H        778 ligands_prepared   0.0000
  39 H39    227.5086 158.5932 181.9608   H        778 ligands_prepared   0.0000
  40 H40    227.7651 156.1238 181.8333   H        778 ligands_prepared   0.0000
  41 H41    227.5998 154.9679 179.6344   H        778 ligands_prepared   0.0000
  42 H42    224.5494 156.1905 176.6886   H        778 ligands_prepared   0.0000
  43 H43    222.9707 154.2653 176.6619   H        778 ligands_prepared   0.0000
@<TRIPOS>BOND
   1  1  2   ar
   2  1 21   ar
   3  1 22    1
   4  2  3   ar
   5  2 23    1
   6  3  4   ar
   7  3 24    1
   8  4  5    1
   9  4 20   ar
  10  5  6    2
  11  5 14    1
  12  6  7    1
  13  6 11    1
  14  7  8    1
  15  7 25    1
  16  7 26    1
  17  8  9    1
  18  8 13    1
  19  8 27    1
  20  9 10    1
  21  9 28    1
  22  9 29    1
  23 10 11    1
  24 10 30    1
  25 10 31    1
  26 11 12    1
  27 11 32    1
  28 12 13    1
  29 12 33    1
  30 12 34    1
  31 13 35    1
  32 13 36    1
  33 14 15   ar
  34 14 19   ar
  35 15 16   ar
  36 15 37    1
  37 16 17   ar
  38 16 38    1
  39 17 18   ar
  40 17 39    1
  41 18 19   ar
  42 18 40    1
  43 19 41    1
  44 20 21   ar
  45 20 42    1
  46 21 43    1
