@<TRIPOS>MOLECULE
CHEMBL2179842_LIG
48 51 1 0 0
SMALL
USER_CHARGES

@<TRIPOS>ATOM
   1 O1     227.6432 159.6457 176.4556   O.2      778 ligands_prepared   0.0000
   2 C2     227.8235 158.7553 177.2797   C.2      778 ligands_prepared   0.0000
   3 N3     228.7737 158.9015 178.2553   N.am     778 ligands_prepared   0.0000
   4 C4     229.5400 160.1468 178.3324   C.3      778 ligands_prepared   0.0000
   5 C5     231.0594 159.8651 178.2545   C.3      778 ligands_prepared   0.0000
   6 C6     231.7674 161.2266 178.3059   C.3      778 ligands_prepared   0.0000
   7 C7     231.5346 161.8699 179.6807   C.3      778 ligands_prepared   0.0000
   8 N8     230.5247 161.0604 180.4723   N.4      778 ligands_prepared   1.0000
   9 C9     231.1242 159.6950 180.7600   C.3      778 ligands_prepared   0.0000
  10 C10    231.5227 159.0129 179.4448   C.3      778 ligands_prepared   0.0000
  11 C11    229.2297 160.8737 179.6860   C.3      778 ligands_prepared   0.0000
  12 C12    228.5365 162.2211 179.4593   C.3      778 ligands_prepared   0.0000
  13 C13    228.0953 162.8411 180.7435   C.ar     778 ligands_prepared   0.0000
  14 C14    227.4085 162.1064 181.7103   C.ar     778 ligands_prepared   0.0000
  15 C15    227.0316 162.7295 182.9005   C.ar     778 ligands_prepared   0.0000
  16 C16    227.3586 164.0765 183.0855   C.ar     778 ligands_prepared   0.0000
  17 N17    228.0252 164.7933 182.1582   N.ar     778 ligands_prepared   0.0000
  18 C18    228.3874 164.1869 181.0100   C.ar     778 ligands_prepared   0.0000
  19 C19    227.0166 157.5097 177.2795   C.ar     778 ligands_prepared   0.0000
  20 C20    226.1966 157.2645 176.1743   C.ar     778 ligands_prepared   0.0000
  21 C21    225.3734 156.1393 176.1626   C.ar     778 ligands_prepared   0.0000
  22 C22    225.3987 155.3007 177.2728   C.ar     778 ligands_prepared   0.0000
  23 Cl23   224.3591 153.9354 177.2811   Cl       778 ligands_prepared   0.0000
  24 C24    226.2113 155.5198 178.3807   C.ar     778 ligands_prepared   0.0000
  25 C25    227.0350 156.6437 178.3771   C.ar     778 ligands_prepared   0.0000
  26 H26    228.9803 158.1705 178.9314   H        778 ligands_prepared   0.0000
  27 H27    229.2374 160.8110 177.4729   H        778 ligands_prepared   0.0000
  28 H28    231.2980 159.3416 177.2982   H        778 ligands_prepared   0.0000
  29 H29    232.8536 161.1048 178.1145   H        778 ligands_prepared   0.0000
  30 H30    231.4078 161.8913 177.4934   H        778 ligands_prepared   0.0000
  31 H31    232.4824 161.9165 180.2686   H        778 ligands_prepared   0.0000
  32 H32    231.1798 162.9211 179.5920   H        778 ligands_prepared   0.0000
  33 H33    230.3019 161.5528 181.3748   H        778 ligands_prepared   0.0000
  34 H34    232.0027 159.8305 181.4345   H        778 ligands_prepared   0.0000
  35 H35    230.3884 159.0849 181.3343   H        778 ligands_prepared   0.0000
  36 H36    231.1091 157.9859 179.3988   H        778 ligands_prepared   0.0000
  37 H37    232.6228 158.8677 179.3932   H        778 ligands_prepared   0.0000
  38 H38    228.5619 160.2212 180.3157   H        778 ligands_prepared   0.0000
  39 H39    229.1728 162.9153 178.8650   H        778 ligands_prepared   0.0000
  40 H40    227.6518 162.0567 178.7881   H        778 ligands_prepared   0.0000
  41 H41    227.1713 161.0511 181.5474   H        778 ligands_prepared   0.0000
  42 H42    226.4922 162.1786 183.6725   H        778 ligands_prepared   0.0000
  43 H43    227.0853 164.6127 184.0072   H        778 ligands_prepared   0.0000
  44 H44    228.9316 164.8111 180.2853   H        778 ligands_prepared   0.0000
  45 H45    226.1927 157.9559 175.3233   H        778 ligands_prepared   0.0000
  46 H46    224.7274 155.9418 175.3010   H        778 ligands_prepared   0.0000
  47 H47    226.2167 154.8410 179.2395   H        778 ligands_prepared   0.0000
  48 H48    227.6826 156.8398 179.2374   H        778 ligands_prepared   0.0000
@<TRIPOS>BOND
   1  1  2    2
   2  2  3   am
   3  2 19    1
   4  3  4    1
   5  3 26    1
   6  4  5    1
   7  4 11    1
   8  4 27    1
   9  5  6    1
  10  5 10    1
  11  5 28    1
  12  6  7    1
  13  6 29    1
  14  6 30    1
  15  7  8    1
  16  7 31    1
  17  7 32    1
  18  8  9    1
  19  8 11    1
  20  8 33    1
  21  9 10    1
  22  9 34    1
  23  9 35    1
  24 10 36    1
  25 10 37    1
  26 11 12    1
  27 11 38    1
  28 12 13    1
  29 12 39    1
  30 12 40    1
  31 13 14   ar
  32 13 18   ar
  33 14 15   ar
  34 14 41    1
  35 15 16   ar
  36 15 42    1
  37 16 17   ar
  38 16 43    1
  39 17 18   ar
  40 18 44    1
  41 19 20   ar
  42 19 25   ar
  43 20 21   ar
  44 20 45    1
  45 21 22   ar
  46 21 46    1
  47 22 23    1
  48 22 24   ar
  49 24 25   ar
  50 24 47    1
  51 25 48    1
