@<TRIPOS>MOLECULE
CHEMBL2179964_LIG
30 32 1 0 0
SMALL
USER_CHARGES

@<TRIPOS>ATOM
   1 O1     220.8020 152.4994 176.4064   O.2      778 ligands_prepared   0.0000
   2 C2     219.6979 153.0052 176.6149   C.2      778 ligands_prepared   0.0000
   3 C3     219.4105 153.7454 177.8722   C.3      778 ligands_prepared   0.0000
   4 C4     220.4821 153.7009 178.9519   C.3      778 ligands_prepared   0.0000
   5 C5     219.2096 152.9282 179.1390   C.3      778 ligands_prepared   0.0000
   6 N6     218.7376 152.8850 175.6508   N.am     778 ligands_prepared   0.0000
   7 C7     219.1385 152.1290 174.3677   C.3      778 ligands_prepared   0.0000
   8 C8     218.2942 152.4589 173.0516   C.3      778 ligands_prepared   0.0000
   9 C9     216.9619 151.6401 172.6935   C.3      778 ligands_prepared   0.0000
  10 N10    215.7853 152.2963 173.5719   N.4      778 ligands_prepared   1.0000
  11 C11    216.7636 152.8546 174.5662   C.3      778 ligands_prepared   0.0000
  12 C12    217.6049 153.7184 173.5141   C.3      778 ligands_prepared   0.0000
  13 C13    217.2999 153.3999 175.8778   C.3      778 ligands_prepared   0.0000
  14 H14    218.8293 154.6687 177.7636   H        778 ligands_prepared   0.0000
  15 H15    221.4130 153.1699 178.7502   H        778 ligands_prepared   0.0000
  16 H16    220.6750 154.6000 179.5363   H        778 ligands_prepared   0.0000
  17 H17    219.2201 151.8401 179.0764   H        778 ligands_prepared   0.0000
  18 H18    218.4647 153.2609 179.8624   H        778 ligands_prepared   0.0000
  19 H19    220.1928 152.4176 174.1600   H        778 ligands_prepared   0.0000
  20 H20    219.1107 151.0446 174.5888   H        778 ligands_prepared   0.0000
  21 H21    218.9571 152.4936 172.1756   H        778 ligands_prepared   0.0000
  22 H22    216.7014 151.7598 171.6298   H        778 ligands_prepared   0.0000
  23 H23    217.0259 150.5706 172.9455   H        778 ligands_prepared   0.0000
  24 H24    215.2397 152.9932 173.0408   H        778 ligands_prepared   0.0000
  25 H25    215.1311 151.5916 173.9450   H        778 ligands_prepared   0.0000
  26 H26    217.0900 151.7417 174.8850   H        778 ligands_prepared   0.0000
  27 H27    216.9764 154.2540 172.7845   H        778 ligands_prepared   0.0000
  28 H28    218.2494 154.5118 173.9221   H        778 ligands_prepared   0.0000
  29 H29    217.2956 154.5020 175.9809   H        778 ligands_prepared   0.0000
  30 H30    216.8674 152.9424 176.7903   H        778 ligands_prepared   0.0000
@<TRIPOS>BOND
   1  1  2    2
   2  2  3    1
   3  2  6   am
   4  3  4    1
   5  3  5    1
   6  3 14    1
   7  4  5    1
   8  4 15    1
   9  4 16    1
  10  5 17    1
  11  5 18    1
  12  7  6    1
  13  6 13    1
  14  7  8    1
  15  7 19    1
  16  7 20    1
  17  8  9    1
  18  8 12    1
  19  8 21    1
  20  9 10    1
  21  9 22    1
  22  9 23    1
  23 10 11    1
  24 10 24    1
  25 10 25    1
  26 11 12    1
  27 11 13    1
  28 11 26    1
  29 12 27    1
  30 12 28    1
  31 13 29    1
  32 13 30    1
