@<TRIPOS>MOLECULE
CHEMBL2179879_LIG
51 55 1 0 0
SMALL
USER_CHARGES

@<TRIPOS>ATOM
   1 O1     224.7886 151.1370 176.9190   O.2      778 ligands_prepared   0.0000
   2 C2     224.0528 152.0972 177.1102   C.2      778 ligands_prepared   0.0000
   3 N3     222.7122 151.9392 177.3312   N.am     778 ligands_prepared   0.0000
   4 C4     221.8635 153.0981 177.6010   C.3      778 ligands_prepared   0.0000
   5 C5     221.8193 153.4162 179.1199   C.3      778 ligands_prepared   0.0000
   6 C6     221.0764 152.3020 179.8676   C.3      778 ligands_prepared   0.0000
   7 C7     219.6215 152.2378 179.3813   C.3      778 ligands_prepared   0.0000
   8 N8     219.4200 153.1779 178.2067   N.4      778 ligands_prepared   1.0000
   9 C9     219.6557 154.6022 178.6666   C.3      778 ligands_prepared   0.0000
  10 C10    221.0539 154.7369 179.2857   C.3      778 ligands_prepared   0.0000
  11 C11    220.4095 152.8034 177.1102   C.3      778 ligands_prepared   0.0000
  12 C12    220.0820 153.5625 175.8155   C.3      778 ligands_prepared   0.0000
  13 C13    218.9728 152.8436 175.1226   C.ar     778 ligands_prepared   0.0000
  14 C14    219.2493 151.9376 174.0963   C.ar     778 ligands_prepared   0.0000
  15 C15    218.1935 151.3284 173.4255   C.ar     778 ligands_prepared   0.0000
  16 C16    216.8855 151.6541 173.7994   C.ar     778 ligands_prepared   0.0000
  17 N17    216.6101 152.5072 174.8069   N.ar     778 ligands_prepared   0.0000
  18 C18    217.6336 153.0923 175.4577   C.ar     778 ligands_prepared   0.0000
  19 C19    224.5802 153.4682 177.0836   C.2      778 ligands_prepared   0.0000
  20 C20    224.3280 154.5073 176.2361   C.2      778 ligands_prepared   0.0000
  21 C21    225.1204 155.6154 176.7137   C.ar     778 ligands_prepared   0.0000
  22 C22    225.3122 156.9346 176.3075   C.ar     778 ligands_prepared   0.0000
  23 C23    226.1921 157.6863 177.0659   C.ar     778 ligands_prepared   0.0000
  24 Cl24   226.4604 159.3187 176.6031   Cl       778 ligands_prepared   0.0000
  25 C25    226.8834 157.2060 178.1864   C.ar     778 ligands_prepared   0.0000
  26 C26    226.7002 155.8928 178.6034   C.ar     778 ligands_prepared   0.0000
  27 C27    225.8145 155.1274 177.8527   C.ar     778 ligands_prepared   0.0000
  28 O28    225.4886 153.8084 178.0927   O.3      778 ligands_prepared   0.0000
  29 H29    222.2769 151.0180 177.3620   H        778 ligands_prepared   0.0000
  30 H30    222.2763 153.9947 177.0542   H        778 ligands_prepared   0.0000
  31 H31    222.8570 153.5182 179.5145   H        778 ligands_prepared   0.0000
  32 H32    221.1118 152.4803 180.9610   H        778 ligands_prepared   0.0000
  33 H33    221.5822 151.3248 179.7318   H        778 ligands_prepared   0.0000
  34 H34    218.9094 152.5207 180.1896   H        778 ligands_prepared   0.0000
  35 H35    219.3373 151.2058 179.0707   H        778 ligands_prepared   0.0000
  36 H36    218.4346 153.0804 177.8402   H        778 ligands_prepared   0.0000
  37 H37    218.8561 154.8781 179.3931   H        778 ligands_prepared   0.0000
  38 H38    219.5229 155.2881 177.7986   H        778 ligands_prepared   0.0000
  39 H39    220.9805 155.0035 180.3596   H        778 ligands_prepared   0.0000
  40 H40    221.6063 155.5786 178.8194   H        778 ligands_prepared   0.0000
  41 H41    220.2809 151.6979 176.9287   H        778 ligands_prepared   0.0000
  42 H42    220.9768 153.6656 175.1614   H        778 ligands_prepared   0.0000
  43 H43    219.7865 154.6172 176.0320   H        778 ligands_prepared   0.0000
  44 H44    220.2836 151.7144 173.8220   H        778 ligands_prepared   0.0000
  45 H45    218.3812 150.6161 172.6220   H        778 ligands_prepared   0.0000
  46 H46    216.0173 151.2220 173.2820   H        778 ligands_prepared   0.0000
  47 H47    217.3627 153.7845 176.2662   H        778 ligands_prepared   0.0000
  48 H48    223.6714 154.5263 175.3830   H        778 ligands_prepared   0.0000
  49 H49    224.7895 157.3332 175.4346   H        778 ligands_prepared   0.0000
  50 H50    227.5692 157.8577 178.7393   H        778 ligands_prepared   0.0000
  51 H51    227.2232 155.4879 179.4704   H        778 ligands_prepared   0.0000
@<TRIPOS>BOND
   1  1  2    2
   2  2  3   am
   3  2 19    1
   4  3  4    1
   5  3 29    1
   6  4  5    1
   7  4 11    1
   8  4 30    1
   9  5  6    1
  10  5 10    1
  11  5 31    1
  12  6  7    1
  13  6 32    1
  14  6 33    1
  15  7  8    1
  16  7 34    1
  17  7 35    1
  18  8  9    1
  19  8 11    1
  20  8 36    1
  21  9 10    1
  22  9 37    1
  23  9 38    1
  24 10 39    1
  25 10 40    1
  26 11 12    1
  27 11 41    1
  28 12 13    1
  29 12 42    1
  30 12 43    1
  31 13 14   ar
  32 13 18   ar
  33 14 15   ar
  34 14 44    1
  35 15 16   ar
  36 15 45    1
  37 16 17   ar
  38 16 46    1
  39 17 18   ar
  40 18 47    1
  41 19 20    2
  42 19 28    1
  43 20 21    1
  44 20 48    1
  45 21 22   ar
  46 21 27   ar
  47 22 23   ar
  48 22 49    1
  49 23 24    1
  50 23 25   ar
  51 25 26   ar
  52 25 50    1
  53 26 27   ar
  54 26 51    1
  55 27 28    1
