@<TRIPOS>MOLECULE
CHEMBL3329532_LIG
29 30 1 0 0
SMALL
USER_CHARGES

@<TRIPOS>ATOM
   1 C1     218.2278 152.9122 178.3149   C.3      778 ligands_prepared   0.0000
   2 C2     219.3487 153.6111 177.5420   C.3      778 ligands_prepared   0.0000
   3 C3     220.6095 153.6969 178.4043   C.3      778 ligands_prepared   0.0000
   4 C4     219.6779 152.8168 176.2896   C.2      778 ligands_prepared   0.0000
   5 O5     220.8017 152.3736 176.0777   O.2      778 ligands_prepared   0.0000
   6 N6     218.7109 152.5720 175.3394   N.am     778 ligands_prepared   0.0000
   7 C7     217.3277 153.0762 175.4369   C.3      778 ligands_prepared   0.0000
   8 C8     216.3986 152.2812 174.5005   C.3      778 ligands_prepared   0.0000
   9 C9     216.8896 152.4346 173.0318   C.3      778 ligands_prepared   0.0000
  10 C10    217.9014 151.3004 173.3672   C.3      778 ligands_prepared   0.0000
  11 C11    219.1218 151.8973 174.0843   C.3      778 ligands_prepared   0.0000
  12 N12    216.9096 150.8170 174.4591   N.4      778 ligands_prepared   1.0000
  13 H13    217.9523 153.4877 179.2080   H        778 ligands_prepared   0.0000
  14 H14    218.5320 151.9101 178.6444   H        778 ligands_prepared   0.0000
  15 H15    217.3243 152.7930 177.7039   H        778 ligands_prepared   0.0000
  16 H16    219.0044 154.6415 177.2658   H        778 ligands_prepared   0.0000
  17 H17    220.9833 152.6994 178.6734   H        778 ligands_prepared   0.0000
  18 H18    220.4041 154.2318 179.3427   H        778 ligands_prepared   0.0000
  19 H19    221.4234 154.2298 177.8999   H        778 ligands_prepared   0.0000
  20 H20    216.9714 153.0035 176.4917   H        778 ligands_prepared   0.0000
  21 H21    217.2845 154.1582 175.1558   H        778 ligands_prepared   0.0000
  22 H22    215.3254 152.3907 174.7233   H        778 ligands_prepared   0.0000
  23 H23    216.1422 152.1706 172.2690   H        778 ligands_prepared   0.0000
  24 H24    217.3046 153.4052 172.7452   H        778 ligands_prepared   0.0000
  25 H25    218.1419 150.5527 172.5948   H        778 ligands_prepared   0.0000
  26 H26    219.6343 152.6259 173.4093   H        778 ligands_prepared   0.0000
  27 H27    219.8729 151.1037 174.3210   H        778 ligands_prepared   0.0000
  28 H28    216.2091 150.1384 174.1176   H        778 ligands_prepared   0.0000
  29 H29    217.3266 150.4537 175.3265   H        778 ligands_prepared   0.0000
@<TRIPOS>BOND
   1  1  2    1
   2  1 13    1
   3  1 14    1
   4  1 15    1
   5  2  3    1
   6  2  4    1
   7  2 16    1
   8  3 17    1
   9  3 18    1
  10  3 19    1
  11  4  5    2
  12  4  6   am
  13  7  6    1
  14  6 11    1
  15  7  8    1
  16  7 20    1
  17  7 21    1
  18  8  9    1
  19  8 12    1
  20  8 22    1
  21  9 10    1
  22  9 23    1
  23  9 24    1
  24 10 11    1
  25 10 12    1
  26 10 25    1
  27 11 26    1
  28 11 27    1
  29 12 28    1
  30 12 29    1
