@<TRIPOS>MOLECULE
CHEMBL3329539_LIG
27 29 1 0 0
SMALL
USER_CHARGES

@<TRIPOS>ATOM
   1 O1     221.1149 152.5595 176.3575   O.2      778 ligands_prepared   0.0000
   2 C2     219.9576 152.9211 176.5423   C.2      778 ligands_prepared   0.0000
   3 C3     219.5524 153.7239 177.7257   C.3      778 ligands_prepared   0.0000
   4 C4     218.5908 153.0993 178.7213   C.3      778 ligands_prepared   0.0000
   5 C5     220.0316 153.2849 179.1031   C.3      778 ligands_prepared   0.0000
   6 F6     220.3019 154.2808 179.9591   F        778 ligands_prepared   0.0000
   7 N7     219.0074 152.5908 175.6127   N.am     778 ligands_prepared   0.0000
   8 C8     217.6117 153.0097 175.8822   C.3      778 ligands_prepared   0.0000
   9 C9     216.6626 152.5076 174.7906   C.3      778 ligands_prepared   0.0000
  10 C10    217.2401 152.8809 173.3947   C.3      778 ligands_prepared   0.0000
  11 C11    218.1049 151.5954 173.5247   C.3      778 ligands_prepared   0.0000
  12 C12    219.3580 151.9001 174.3539   C.3      778 ligands_prepared   0.0000
  13 N13    217.0372 151.0300 174.4984   N.4      778 ligands_prepared   1.0000
  14 H14    219.4491 154.7997 177.5013   H        778 ligands_prepared   0.0000
  15 H15    217.8028 153.7151 179.1607   H        778 ligands_prepared   0.0000
  16 H16    218.2127 152.0895 178.5405   H        778 ligands_prepared   0.0000
  17 H17    220.7283 152.4394 179.2303   H        778 ligands_prepared   0.0000
  18 H18    217.5539 154.1259 175.9510   H        778 ligands_prepared   0.0000
  19 H19    217.3074 152.6240 176.8885   H        778 ligands_prepared   0.0000
  20 H20    215.5932 152.6787 174.9948   H        778 ligands_prepared   0.0000
  21 H21    216.5094 152.8667 172.5735   H        778 ligands_prepared   0.0000
  22 H22    217.7806 153.8313 173.3256   H        778 ligands_prepared   0.0000
  23 H23    218.2859 150.9762 172.6300   H        778 ligands_prepared   0.0000
  24 H24    220.0533 152.5354 173.7463   H        778 ligands_prepared   0.0000
  25 H25    219.9122 150.9574 174.5885   H        778 ligands_prepared   0.0000
  26 H26    217.3920 150.4849 175.2962   H        778 ligands_prepared   0.0000
  27 H27    216.2895 150.4885 174.0352   H        778 ligands_prepared   0.0000
@<TRIPOS>BOND
   1  1  2    2
   2  2  3    1
   3  2  7   am
   4  3  4    1
   5  3  5    1
   6  3 14    1
   7  4  5    1
   8  4 15    1
   9  4 16    1
  10  5  6    1
  11  5 17    1
  12  8  7    1
  13  7 12    1
  14  8  9    1
  15  8 18    1
  16  8 19    1
  17  9 10    1
  18  9 13    1
  19  9 20    1
  20 10 11    1
  21 10 21    1
  22 10 22    1
  23 11 12    1
  24 11 13    1
  25 11 23    1
  26 12 24    1
  27 12 25    1
  28 13 26    1
  29 13 27    1
