@<TRIPOS>MOLECULE
CHEMBL3094068_LIG
32 33 1 0 0
SMALL
USER_CHARGES

@<TRIPOS>ATOM
   1 C1     219.6311 153.1552 178.7570   C.3      778 ligands_prepared   0.0000
   2 C2     218.7559 153.3960 177.5301   C.3      778 ligands_prepared   0.0000
   3 C3     219.4021 152.8108 176.3003   C.2      778 ligands_prepared   0.0000
   4 O4     220.4689 152.1999 176.3555   O.2      778 ligands_prepared   0.0000
   5 N5     218.7972 152.9550 175.0789   N.am     778 ligands_prepared   0.0000
   6 C6     217.5505 153.7072 174.8802   C.3      778 ligands_prepared   0.0000
   7 C7     216.6457 153.0500 173.8117   C.3      778 ligands_prepared   0.0000
   8 C8     216.0999 151.6967 174.3076   C.3      778 ligands_prepared   0.0000
   9 N9     217.2043 150.6697 174.5191   N.4      778 ligands_prepared   1.0000
  10 C10    218.0652 150.5423 173.2838   C.3      778 ligands_prepared   0.0000
  11 C11    218.5990 151.9080 172.8100   C.3      778 ligands_prepared   0.0000
  12 C12    217.4501 152.8773 172.5211   C.3      778 ligands_prepared   0.0000
  13 C13    219.5276 152.5410 173.8683   C.3      778 ligands_prepared   0.0000
  14 H14    220.6339 153.5832 178.6257   H        778 ligands_prepared   0.0000
  15 H15    219.1863 153.6054 179.6537   H        778 ligands_prepared   0.0000
  16 H16    219.7625 152.0824 178.9487   H        778 ligands_prepared   0.0000
  17 H17    217.7500 152.9476 177.6806   H        778 ligands_prepared   0.0000
  18 H18    218.5819 154.4864 177.3952   H        778 ligands_prepared   0.0000
  19 H19    217.7950 154.7535 174.5661   H        778 ligands_prepared   0.0000
  20 H20    216.9844 153.7893 175.8361   H        778 ligands_prepared   0.0000
  21 H21    215.7822 153.7392 173.6268   H        778 ligands_prepared   0.0000
  22 H22    215.3791 151.2667 173.5728   H        778 ligands_prepared   0.0000
  23 H23    215.5325 151.8133 175.2620   H        778 ligands_prepared   0.0000
  24 H24    217.7931 150.9365 175.3408   H        778 ligands_prepared   0.0000
  25 H25    216.7835 149.7398 174.7493   H        778 ligands_prepared   0.0000
  26 H26    218.9010 149.8356 173.5020   H        778 ligands_prepared   0.0000
  27 H27    217.4516 150.0599 172.4861   H        778 ligands_prepared   0.0000
  28 H28    219.2016 151.7523 171.8773   H        778 ligands_prepared   0.0000
  29 H29    217.8450 153.8561 172.1753   H        778 ligands_prepared   0.0000
  30 H30    216.8160 152.5308 171.6821   H        778 ligands_prepared   0.0000
  31 H31    220.3318 151.8185 174.1454   H        778 ligands_prepared   0.0000
  32 H32    220.0381 153.4331 173.4297   H        778 ligands_prepared   0.0000
@<TRIPOS>BOND
   1  1  2    1
   2  1 14    1
   3  1 15    1
   4  1 16    1
   5  2  3    1
   6  2 17    1
   7  2 18    1
   8  3  4    2
   9  3  5   am
  10  6  5    1
  11  5 13    1
  12  6  7    1
  13  6 19    1
  14  6 20    1
  15  7  8    1
  16  7 12    1
  17  7 21    1
  18  8  9    1
  19  8 22    1
  20  8 23    1
  21  9 10    1
  22  9 24    1
  23  9 25    1
  24 10 11    1
  25 10 26    1
  26 10 27    1
  27 11 12    1
  28 11 13    1
  29 11 28    1
  30 12 29    1
  31 12 30    1
  32 13 31    1
  33 13 32    1
