@<TRIPOS>MOLECULE
CHEMBL2179554_LIG
30 32 1 0 0
SMALL
USER_CHARGES

@<TRIPOS>ATOM
   1 O1     220.9767 152.1872 175.9831   O.2      778 ligands_prepared   0.0000
   2 C2     219.8573 152.6202 176.2713   C.2      778 ligands_prepared   0.0000
   3 C3     219.6148 153.0209 177.6534   C.2      778 ligands_prepared   0.0000
   4 C4     218.4391 153.1020 178.3619   C.2      778 ligands_prepared   0.0000
   5 C5     218.7781 153.5221 179.6942   C.2      778 ligands_prepared   0.0000
   6 C6     220.1389 153.6626 179.6815   C.2      778 ligands_prepared   0.0000
   7 F7     221.0243 154.0207 180.5629   F        778 ligands_prepared   0.0000
   8 O8     220.7009 153.3622 178.4603   O.3      778 ligands_prepared   0.0000
   9 N9     218.9006 152.6728 175.2948   N.am     778 ligands_prepared   0.0000
  10 C10    217.5677 153.2714 175.4943   C.3      778 ligands_prepared   0.0000
  11 C11    216.5452 152.7872 174.4445   C.3      778 ligands_prepared   0.0000
  12 C12    216.3952 151.2539 174.4997   C.3      778 ligands_prepared   0.0000
  13 N13    217.5070 150.7142 173.6053   N.4      778 ligands_prepared   1.0000
  14 C14    218.1982 151.9463 173.0053   C.3      778 ligands_prepared   0.0000
  15 C15    217.1092 153.0235 173.0355   C.3      778 ligands_prepared   0.0000
  16 C16    219.3568 152.3827 173.9193   C.3      778 ligands_prepared   0.0000
  17 H17    217.4445 152.8911 178.0026   H        778 ligands_prepared   0.0000
  18 H18    218.0899 153.6819 180.5037   H        778 ligands_prepared   0.0000
  19 H19    217.1741 152.9895 176.5022   H        778 ligands_prepared   0.0000
  20 H20    217.6461 154.3851 175.4611   H        778 ligands_prepared   0.0000
  21 H21    215.5709 153.3003 174.6092   H        778 ligands_prepared   0.0000
  22 H22    216.4943 150.8412 175.5248   H        778 ligands_prepared   0.0000
  23 H23    215.4072 150.9200 174.1146   H        778 ligands_prepared   0.0000
  24 H24    217.1215 150.1063 172.8544   H        778 ligands_prepared   0.0000
  25 H25    218.1779 150.1353 174.1477   H        778 ligands_prepared   0.0000
  26 H26    218.5700 151.7001 171.9807   H        778 ligands_prepared   0.0000
  27 H27    217.5051 154.0445 172.8876   H        778 ligands_prepared   0.0000
  28 H28    216.3482 152.8864 172.2456   H        778 ligands_prepared   0.0000
  29 H29    220.1496 151.5917 173.9476   H        778 ligands_prepared   0.0000
  30 H30    219.8468 153.2896 173.4816   H        778 ligands_prepared   0.0000
@<TRIPOS>BOND
   1  1  2    2
   2  2  3    1
   3  2  9   am
   4  3  4    2
   5  3  8    1
   6  4  5    1
   7  4 17    1
   8  5  6    2
   9  5 18    1
  10  6  7    1
  11  6  8    1
  12 10  9    1
  13  9 16    1
  14 10 11    1
  15 10 19    1
  16 10 20    1
  17 11 12    1
  18 11 15    1
  19 11 21    1
  20 12 13    1
  21 12 22    1
  22 12 23    1
  23 13 14    1
  24 13 24    1
  25 13 25    1
  26 14 15    1
  27 14 16    1
  28 14 26    1
  29 15 27    1
  30 15 28    1
  31 16 29    1
  32 16 30    1
