@<TRIPOS>MOLECULE
CHEMBL442947_ncw_LIG
47 50 1 0 0
SMALL
USER_CHARGES

@<TRIPOS>ATOM
   1 C1     227.4856 160.3874 181.1021   C.3      778 ligands_prepared   0.0000
   2 O2     228.1452 159.1612 180.8047   O.3      778 ligands_prepared   0.0000
   3 C3     227.7458 158.4611 179.7149   C.ar     778 ligands_prepared   0.0000
   4 C4     227.2489 159.2675 178.6960   C.ar     778 ligands_prepared   0.0000
   5 C5     226.7521 158.7020 177.5167   C.ar     778 ligands_prepared   0.0000
   6 C6     226.7218 157.3180 177.3654   C.ar     778 ligands_prepared   0.0000
   7 C7     227.2573 156.5069 178.3752   C.ar     778 ligands_prepared   0.0000
   8 C8     227.7662 157.0580 179.5410   C.ar     778 ligands_prepared   0.0000
   9 O9     228.3032 156.3453 180.5663   O.3      778 ligands_prepared   0.0000
  10 C10    227.7988 155.0303 180.7778   C.3      778 ligands_prepared   0.0000
  11 C11    226.1435 156.6379 176.1490   C.3      778 ligands_prepared   0.0000
  12 C12    224.8042 155.9612 176.4349   C.3      778 ligands_prepared   0.0000
  13 C13    224.9962 154.6356 177.1981   C.3      778 ligands_prepared   0.0000
  14 O14    223.7811 153.9386 176.9473   O.3      778 ligands_prepared   0.0000
  15 C15    223.7396 152.6358 177.5005   C.3      778 ligands_prepared   0.0000
  16 C16    226.1430 153.7991 176.7065   C.2      778 ligands_prepared   0.0000
  17 C17    227.1581 154.2933 175.9842   C.2      778 ligands_prepared   0.0000
  18 C18    227.1572 155.6658 175.5416   C.2      778 ligands_prepared   0.0000
  19 C19    227.8538 156.2544 174.5553   C.2      778 ligands_prepared   0.0000
  20 C20    227.3400 157.6392 174.2830   C.3      778 ligands_prepared   0.0000
  21 N21    225.9672 157.6293 174.9650   N.4      778 ligands_prepared   1.0000
  22 C22    225.4576 158.9775 175.3786   C.3      778 ligands_prepared   0.0000
  23 C23    226.3323 159.6374 176.4333   C.3      778 ligands_prepared   0.0000
  24 H24    226.4021 160.2482 181.1824   H        778 ligands_prepared   0.0000
  25 H25    227.7318 161.1479 180.3535   H        778 ligands_prepared   0.0000
  26 H26    227.9157 160.6497 182.0795   H        778 ligands_prepared   0.0000
  27 H27    227.2576 160.3541 178.8213   H        778 ligands_prepared   0.0000
  28 H28    227.2930 155.4253 178.2325   H        778 ligands_prepared   0.0000
  29 H29    226.7418 155.0551 181.0618   H        778 ligands_prepared   0.0000
  30 H30    227.9614 154.3945 179.9014   H        778 ligands_prepared   0.0000
  31 H31    228.4140 154.6828 181.6214   H        778 ligands_prepared   0.0000
  32 H32    224.1336 156.6324 177.0132   H        778 ligands_prepared   0.0000
  33 H33    224.2528 155.7446 175.4905   H        778 ligands_prepared   0.0000
  34 H34    225.1052 154.8336 178.2950   H        778 ligands_prepared   0.0000
  35 H35    223.7930 152.6777 178.5940   H        778 ligands_prepared   0.0000
  36 H36    222.7589 152.2583 177.1795   H        778 ligands_prepared   0.0000
  37 H37    224.5401 152.0064 177.0976   H        778 ligands_prepared   0.0000
  38 H38    226.0948 152.7458 176.9965   H        778 ligands_prepared   0.0000
  39 H39    228.0030 153.6743 175.6667   H        778 ligands_prepared   0.0000
  40 H40    228.6599 155.8432 173.9655   H        778 ligands_prepared   0.0000
  41 H41    227.2272 157.8703 173.1999   H        778 ligands_prepared   0.0000
  42 H42    227.9945 158.4290 174.7191   H        778 ligands_prepared   0.0000
  43 H43    225.2703 157.2056 174.2863   H        778 ligands_prepared   0.0000
  44 H44    225.3764 159.6235 174.4679   H        778 ligands_prepared   0.0000
  45 H45    224.4114 158.8493 175.7573   H        778 ligands_prepared   0.0000
  46 H46    225.7819 160.5162 176.8549   H        778 ligands_prepared   0.0000
  47 H47    227.2394 160.0958 175.9688   H        778 ligands_prepared   0.0000
@<TRIPOS>BOND
   1  1  2    1
   2  1 24    1
   3  1 25    1
   4  1 26    1
   5  2  3    1
   6  3  4   ar
   7  3  8   ar
   8  4  5   ar
   9  4 27    1
  10  5  6   ar
  11  5 23    1
  12  6  7   ar
  13  6 11    1
  14  7  8   ar
  15  7 28    1
  16  8  9    1
  17  9 10    1
  18 10 29    1
  19 10 30    1
  20 10 31    1
  21 11 12    1
  22 11 18    1
  23 11 21    1
  24 12 13    1
  25 12 32    1
  26 12 33    1
  27 13 14    1
  28 13 16    1
  29 13 34    1
  30 14 15    1
  31 15 35    1
  32 15 36    1
  33 15 37    1
  34 16 17    2
  35 16 38    1
  36 17 18    1
  37 17 39    1
  38 18 19    2
  39 19 20    1
  40 19 40    1
  41 20 21    1
  42 20 41    1
  43 20 42    1
  44 21 22    1
  45 21 43    1
  46 22 23    1
  47 22 44    1
  48 22 45    1
  49 23 46    1
  50 23 47    1
