@<TRIPOS>MOLECULE
CHEMBL3094096_LIG
33 35 1 0 0
SMALL
USER_CHARGES

@<TRIPOS>ATOM
   1 O1     221.4119 152.1170 176.7972   O.2      778 ligands_prepared   0.0000
   2 C2     220.3564 152.7390 176.9482   C.2      778 ligands_prepared   0.0000
   3 C3     219.9416 153.0996 178.3053   C.2      778 ligands_prepared   0.0000
   4 C4     218.7267 153.0888 178.9415   C.2      778 ligands_prepared   0.0000
   5 C5     218.9378 153.7003 180.2259   C.2      778 ligands_prepared   0.0000
   6 C6     220.2628 154.0439 180.2774   C.2      778 ligands_prepared   0.0000
   7 O7     220.9066 153.6873 179.1156   O.3      778 ligands_prepared   0.0000
   8 N8     219.5804 153.0196 175.8618   N.am     778 ligands_prepared   0.0000
   9 C9     219.7043 152.3243 174.5766   C.3      778 ligands_prepared   0.0000
  10 C10    218.4066 151.5721 174.2029   C.3      778 ligands_prepared   0.0000
  11 C11    217.7492 152.1816 172.9495   C.3      778 ligands_prepared   0.0000
  12 N12    216.3857 152.7617 173.2435   N.4      778 ligands_prepared   1.0000
  13 C13    216.4141 153.7010 174.4269   C.3      778 ligands_prepared   0.0000
  14 C14    217.0898 153.0722 175.6624   C.3      778 ligands_prepared   0.0000
  15 C15    217.4517 151.6102 175.3978   C.3      778 ligands_prepared   0.0000
  16 C16    218.3701 153.8398 176.0613   C.3      778 ligands_prepared   0.0000
  17 H17    217.7872 152.7092 178.5749   H        778 ligands_prepared   0.0000
  18 H18    218.1841 153.8550 180.9744   H        778 ligands_prepared   0.0000
  19 H19    220.9109 154.5186 180.9874   H        778 ligands_prepared   0.0000
  20 H20    219.9783 153.0284 173.7605   H        778 ligands_prepared   0.0000
  21 H21    220.5455 151.5889 174.6460   H        778 ligands_prepared   0.0000
  22 H22    218.6848 150.5096 173.9802   H        778 ligands_prepared   0.0000
  23 H23    218.3878 152.9783 172.5037   H        778 ligands_prepared   0.0000
  24 H24    217.6257 151.4055 172.1547   H        778 ligands_prepared   0.0000
  25 H25    215.7080 151.9880 173.4259   H        778 ligands_prepared   0.0000
  26 H26    216.0294 153.2684 172.3985   H        778 ligands_prepared   0.0000
  27 H27    215.3579 153.9797 174.6603   H        778 ligands_prepared   0.0000
  28 H28    216.9239 154.6427 174.1213   H        778 ligands_prepared   0.0000
  29 H29    216.3788 153.1336 176.5261   H        778 ligands_prepared   0.0000
  30 H30    216.5519 150.9865 175.2276   H        778 ligands_prepared   0.0000
  31 H31    217.9274 151.1570 176.2927   H        778 ligands_prepared   0.0000
  32 H32    218.3031 154.1533 177.1295   H        778 ligands_prepared   0.0000
  33 H33    218.4512 154.7787 175.4588   H        778 ligands_prepared   0.0000
@<TRIPOS>BOND
   1  1  2    2
   2  2  3    1
   3  2  8   am
   4  3  4    2
   5  3  7    1
   6  4  5    1
   7  4 17    1
   8  5  6    2
   9  5 18    1
  10  6  7    1
  11  6 19    1
  12  9  8    1
  13  8 16    1
  14  9 10    1
  15  9 20    1
  16  9 21    1
  17 10 11    1
  18 10 15    1
  19 10 22    1
  20 11 12    1
  21 11 23    1
  22 11 24    1
  23 12 13    1
  24 12 25    1
  25 12 26    1
  26 13 14    1
  27 13 27    1
  28 13 28    1
  29 14 15    1
  30 14 16    1
  31 14 29    1
  32 15 30    1
  33 15 31    1
  34 16 32    1
  35 16 33    1
