@<TRIPOS>MOLECULE
CHEMBL61616_LIG
27 27 1 0 0
SMALL
USER_CHARGES

@<TRIPOS>ATOM
   1 C1     216.1139 152.2082 172.8027   C.3      778 ligands_prepared   0.0000
   2 N2     217.0314 151.2952 173.5577   N.4      778 ligands_prepared   1.0000
   3 C3     218.4022 151.3610 172.9574   C.3      778 ligands_prepared   0.0000
   4 C4     217.0945 151.6824 175.0199   C.3      778 ligands_prepared   0.0000
   5 C5     217.4454 153.1598 175.1861   C.3      778 ligands_prepared   0.0000
   6 O6     217.6274 153.2898 176.6010   O.3      778 ligands_prepared   0.0000
   7 C7     218.8658 153.0569 177.0996   C.ar     778 ligands_prepared   0.0000
   8 C8     218.9674 153.2652 178.4838   C.ar     778 ligands_prepared   0.0000
   9 C9     220.2096 153.0996 179.0761   C.ar     778 ligands_prepared   0.0000
  10 C10    221.3008 152.7279 178.2742   C.ar     778 ligands_prepared   0.0000
  11 N11    221.1912 152.5188 176.9511   N.ar     778 ligands_prepared   0.0000
  12 C12    219.9916 152.6735 176.3578   C.ar     778 ligands_prepared   0.0000
  13 H13    216.4568 153.2581 172.8585   H        778 ligands_prepared   0.0000
  14 H14    215.0793 152.1659 173.1900   H        778 ligands_prepared   0.0000
  15 H15    216.0867 151.9317 171.7315   H        778 ligands_prepared   0.0000
  16 H16    216.6582 150.3086 173.4768   H        778 ligands_prepared   0.0000
  17 H17    218.3825 151.0582 171.8918   H        778 ligands_prepared   0.0000
  18 H18    218.8282 152.3806 173.0152   H        778 ligands_prepared   0.0000
  19 H19    219.0905 150.6718 173.4801   H        778 ligands_prepared   0.0000
  20 H20    216.1264 151.4542 175.5301   H        778 ligands_prepared   0.0000
  21 H21    217.8671 151.0449 175.5276   H        778 ligands_prepared   0.0000
  22 H22    218.3699 153.4585 174.6586   H        778 ligands_prepared   0.0000
  23 H23    216.6059 153.8060 174.8537   H        778 ligands_prepared   0.0000
  24 H24    218.0853 153.5515 179.0603   H        778 ligands_prepared   0.0000
  25 H25    220.3399 153.2509 180.1490   H        778 ligands_prepared   0.0000
  26 H26    222.3021 152.5965 178.7044   H        778 ligands_prepared   0.0000
  27 H27    219.9537 152.4874 175.2784   H        778 ligands_prepared   0.0000
@<TRIPOS>BOND
   1  1  2    1
   2  1 13    1
   3  1 14    1
   4  1 15    1
   5  2  3    1
   6  2  4    1
   7  2 16    1
   8  3 17    1
   9  3 18    1
  10  3 19    1
  11  4  5    1
  12  4 20    1
  13  4 21    1
  14  5  6    1
  15  5 22    1
  16  5 23    1
  17  6  7    1
  18  7  8   ar
  19  7 12   ar
  20  8  9   ar
  21  8 24    1
  22  9 10   ar
  23  9 25    1
  24 10 11   ar
  25 10 26    1
  26 11 12   ar
  27 12 27    1
