@<TRIPOS>MOLECULE
CHEMBL2179869_LIG
44 47 1 0 0
SMALL
USER_CHARGES

@<TRIPOS>ATOM
   1 O1     228.0885 156.0904 177.5560   O.2      778 ligands_prepared   0.0000
   2 C2     227.9274 157.1862 178.0726   C.2      778 ligands_prepared   0.0000
   3 N3     227.7303 158.3261 177.3482   N.am     778 ligands_prepared   0.0000
   4 C4     227.7027 158.3004 175.8875   C.3      778 ligands_prepared   0.0000
   5 C5     227.8913 159.7209 175.2939   C.3      778 ligands_prepared   0.0000
   6 C6     227.9414 159.5644 173.7669   C.3      778 ligands_prepared   0.0000
   7 C7     226.6060 158.9946 173.2678   C.3      778 ligands_prepared   0.0000
   8 N8     225.6806 158.7127 174.4368   N.4      778 ligands_prepared   0.0000
   9 C9     225.3972 160.0127 175.1685   C.3      778 ligands_prepared   0.0000
  10 C10    226.7129 160.6315 175.6630   C.3      778 ligands_prepared   0.0000
  11 C11    226.3183 157.7383 175.4240   C.3      778 ligands_prepared   0.0000
  12 C12    226.4596 156.3482 174.7967   C.3      778 ligands_prepared   0.0000
  13 C13    226.1159 155.2677 175.7655   C.ar     778 ligands_prepared   0.0000
  14 C14    225.0856 155.4259 176.6943   C.ar     778 ligands_prepared   0.0000
  15 C15    224.7988 154.3889 177.5769   C.ar     778 ligands_prepared   0.0000
  16 C16    225.5517 153.2117 177.5004   C.ar     778 ligands_prepared   0.0000
  17 N17    226.5415 153.0460 176.5982   N.ar     778 ligands_prepared   0.0000
  18 C18    226.8152 154.0493 175.7471   C.ar     778 ligands_prepared   0.0000
  19 C19    227.9019 157.3611 179.5480   C.2      778 ligands_prepared   0.0000
  20 C20    227.5136 158.5627 180.2476   C.2      778 ligands_prepared   0.0000
  21 C21    227.6349 158.2310 181.5704   C.2      778 ligands_prepared   0.0000
  22 O22    228.0616 156.9261 181.6858   O.3      778 ligands_prepared   0.0000
  23 N23    228.2215 156.4098 180.4225   N.2      778 ligands_prepared   0.0000
  24 H24    228.5140 159.0000 177.6246   H        778 ligands_prepared   0.0000
  25 H25    228.4969 157.6488 175.5231   H        778 ligands_prepared   0.0000
  26 H26    228.8241 160.1544 175.6547   H        778 ligands_prepared   0.0000
  27 H27    228.7498 158.8846 173.4977   H        778 ligands_prepared   0.0000
  28 H28    228.1158 160.5373 173.3075   H        778 ligands_prepared   0.0000
  29 H29    226.7916 158.0676 172.7253   H        778 ligands_prepared   0.0000
  30 H30    226.1337 159.7173 172.6024   H        778 ligands_prepared   0.0000
  31 H31    224.7624 158.3012 174.0730   H        778 ligands_prepared   0.0000
  32 H32    224.7487 159.8132 176.0216   H        778 ligands_prepared   0.0000
  33 H33    224.9028 160.7085 174.4907   H        778 ligands_prepared   0.0000
  34 H34    226.8507 161.6071 175.1967   H        778 ligands_prepared   0.0000
  35 H36    225.6696 157.6582 176.2964   H        778 ligands_prepared   0.0000
  36 H38    227.4898 156.2125 174.4675   H        778 ligands_prepared   0.0000
  37 H39    224.5119 156.3521 176.7279   H        778 ligands_prepared   0.0000
  38 H40    224.0025 154.4915 178.3141   H        778 ligands_prepared   0.0000
  39 H41    225.3309 152.4002 178.1938   H        778 ligands_prepared   0.0000
  40 H42    227.6104 153.9126 175.0144   H        778 ligands_prepared   0.0000
  41 H43    227.1970 159.5145 179.8210   H        778 ligands_prepared   0.0000
  42 H44    227.4256 158.8987 182.4062   H        778 ligands_prepared   0.0000
  43 H258   225.7912 156.2786 173.9385   H        778 ligands_prepared   0.0000
  44 H260   226.6723 160.7484 176.7459   H        778 ligands_prepared   0.0000
@<TRIPOS>BOND
   1  1  2    2
   2  2  3   am
   3  4  3    1
   4  4  5    1
   5  4 11    1
   6  5  6    1
   7  5 10    1
   8  6  7    1
   9  7  8    1
  10  8  9    1
  11  8 11    1
  12  9 10    1
  13 11 12    1
  14 12 13    1
  15 13 14   ar
  16 13 18   ar
  17 14 15   ar
  18 15 16   ar
  19 16 17   ar
  20 17 18   ar
  21 19 20    1
  22 19 23    2
  23 20 21    2
  24 21 22    1
  25 22 23    1
  26  2 19    1
  27 20 41    1
  28 42 21    1
  29  4 25    1
  30 24  3    1
  31 37 14    1
  32 38 15    1
  33 39 16    1
  34 40 18    1
  35 12 43    1
  36 36 12    1
  37 28  6    1
  38  6 27    1
  39 26  5    1
  40 10 44    1
  41 34 10    1
  42 35 11    1
  43 31  8    1
  44 30  7    1
  45 29  7    1
  46 33  9    1
  47  9 32    1
