@<TRIPOS>MOLECULE
CHEMBL1162395_LIG
40 42 1 0 0
SMALL
USER_CHARGES

@<TRIPOS>ATOM
   1 C1     228.7561 154.4088 175.5209   C.3      778 ligands_prepared   0.0000
   2 O2     227.7354 155.0117 176.3116   O.3      778 ligands_prepared   0.0000
   3 C3     226.6090 154.2985 176.5292   C.ar     778 ligands_prepared   0.0000
   4 C4     226.5288 152.9097 176.5952   C.ar     778 ligands_prepared   0.0000
   5 C5     225.2676 152.3518 176.8190   C.ar     778 ligands_prepared   0.0000
   6 O6     225.0922 151.0133 176.9073   O.3      778 ligands_prepared   0.0000
   7 C7     224.1107 153.1228 176.9646   C.ar     778 ligands_prepared   0.0000
   8 C8     224.2269 154.5095 176.8980   C.ar     778 ligands_prepared   0.0000
   9 C9     225.4637 155.1100 176.6884   C.ar     778 ligands_prepared   0.0000
  10 C10    225.6207 156.5617 176.6457   C.2      778 ligands_prepared   0.0000
  11 C11    226.4494 157.2179 177.4720   C.2      778 ligands_prepared   0.0000
  12 C12    227.2002 156.5209 178.5650   C.3      778 ligands_prepared   0.0000
  13 C13    228.0816 157.4618 179.3929   C.3      778 ligands_prepared   0.0000
  14 C14    227.3726 158.8085 179.6170   C.3      778 ligands_prepared   0.0000
  15 N15    227.0172 159.4373 178.3492   N.2      778 ligands_prepared   0.0000
  16 C16    226.6277 158.6828 177.3764   C.2      778 ligands_prepared   0.0000
  17 C17    226.3684 159.3108 176.0675   C.ar     778 ligands_prepared   0.0000
  18 C18    226.8074 158.6883 174.8944   C.ar     778 ligands_prepared   0.0000
  19 C19    226.5557 159.3003 173.6711   C.ar     778 ligands_prepared   0.0000
  20 C20    225.8754 160.5240 173.6596   C.ar     778 ligands_prepared   0.0000
  21 N21    225.4503 161.1291 174.7876   N.ar     778 ligands_prepared   0.0000
  22 C22    225.6923 160.5341 175.9717   C.ar     778 ligands_prepared   0.0000
  23 H23    229.1434 153.5070 176.0050   H        778 ligands_prepared   0.0000
  24 H24    229.5244 155.1953 175.4988   H        778 ligands_prepared   0.0000
  25 H25    228.3984 154.1953 174.5089   H        778 ligands_prepared   0.0000
  26 H26    227.4031 152.2774 176.4850   H        778 ligands_prepared   0.0000
  27 H27    224.3299 150.6825 176.3520   H        778 ligands_prepared   0.0000
  28 H28    223.1505 152.6448 177.1313   H        778 ligands_prepared   0.0000
  29 H29    223.3363 155.1341 177.0171   H        778 ligands_prepared   0.0000
  30 H30    225.0326 157.0697 175.8765   H        778 ligands_prepared   0.0000
  31 H31    227.8232 155.7081 178.1314   H        778 ligands_prepared   0.0000
  32 H32    226.4757 156.0005 179.2300   H        778 ligands_prepared   0.0000
  33 H33    229.0484 157.6309 178.8792   H        778 ligands_prepared   0.0000
  34 H34    228.3364 156.9953 180.3630   H        778 ligands_prepared   0.0000
  35 H35    226.4615 158.6744 180.2458   H        778 ligands_prepared   0.0000
  36 H36    228.0326 159.5169 180.1681   H        778 ligands_prepared   0.0000
  37 H37    227.3379 157.7318 174.9397   H        778 ligands_prepared   0.0000
  38 H38    226.8796 158.8399 172.7372   H        778 ligands_prepared   0.0000
  39 H39    225.6560 161.0477 172.7192   H        778 ligands_prepared   0.0000
  40 H40    225.3255 161.0573 176.8659   H        778 ligands_prepared   0.0000
@<TRIPOS>BOND
   1  1  2    1
   2  1 23    1
   3  1 24    1
   4  1 25    1
   5  2  3    1
   6  3  4   ar
   7  3  9   ar
   8  4  5   ar
   9  4 26    1
  10  5  6    1
  11  5  7   ar
  12  6 27    1
  13  7  8   ar
  14  7 28    1
  15  8  9   ar
  16  8 29    1
  17  9 10    1
  18 10 11    2
  19 10 30    1
  20 11 12    1
  21 11 16    1
  22 12 13    1
  23 12 31    1
  24 12 32    1
  25 13 14    1
  26 13 33    1
  27 13 34    1
  28 14 15    1
  29 14 35    1
  30 14 36    1
  31 15 16    2
  32 16 17    1
  33 17 18   ar
  34 17 22   ar
  35 18 19   ar
  36 18 37    1
  37 19 20   ar
  38 19 38    1
  39 20 21   ar
  40 20 39    1
  41 21 22   ar
  42 22 40    1
