@<TRIPOS>MOLECULE
CHEMBL2179959_LIG
32 34 1 0 0
SMALL
USER_CHARGES

@<TRIPOS>ATOM
   1 C1     219.7155 153.0859 175.6864   C.2      778 ligands_prepared   0.0000
   2 C2     218.6885 152.5978 174.9859   C.2      778 ligands_prepared   0.0000
   3 C3     217.4867 151.9543 175.6135   C.3      778 ligands_prepared   0.0000
   4 N4     216.5241 151.5105 174.5312   N.4      778 ligands_prepared   1.0000
   5 C5     217.2276 150.5226 173.6214   C.3      778 ligands_prepared   0.0000
   6 C6     218.4764 151.1673 172.9984   C.3      778 ligands_prepared   0.0000
   7 C7     218.6047 152.6227 173.4858   C.3      778 ligands_prepared   0.0000
   8 C8     217.3338 153.4020 173.0985   C.3      778 ligands_prepared   0.0000
   9 C9     216.1024 152.7212 173.7201   C.3      778 ligands_prepared   0.0000
  10 C10    219.7825 153.0436 177.1434   C.ar     778 ligands_prepared   0.0000
  11 C11    218.6953 153.4520 177.9196   C.ar     778 ligands_prepared   0.0000
  12 C12    218.7956 153.3960 179.3069   C.ar     778 ligands_prepared   0.0000
  13 C13    219.9852 152.9283 179.8769   C.ar     778 ligands_prepared   0.0000
  14 N14    221.0359 152.5250 179.1332   N.ar     778 ligands_prepared   0.0000
  15 C15    220.9389 152.5808 177.7924   C.ar     778 ligands_prepared   0.0000
  16 H16    220.5813 153.5437 175.1945   H        778 ligands_prepared   0.0000
  17 H17    217.7723 151.0680 176.2332   H        778 ligands_prepared   0.0000
  18 H18    216.9585 152.6557 176.3056   H        778 ligands_prepared   0.0000
  19 H19    215.6788 151.0581 174.9691   H        778 ligands_prepared   0.0000
  20 H20    217.4911 149.6168 174.2143   H        778 ligands_prepared   0.0000
  21 H21    216.5106 150.1865 172.8382   H        778 ligands_prepared   0.0000
  22 H22    219.3855 150.5924 173.2635   H        778 ligands_prepared   0.0000
  23 H23    218.4213 151.1376 171.8921   H        778 ligands_prepared   0.0000
  24 H24    219.5017 153.1019 173.0265   H        778 ligands_prepared   0.0000
  25 H25    217.2366 153.4518 171.9957   H        778 ligands_prepared   0.0000
  26 H26    217.4098 154.4544 173.4356   H        778 ligands_prepared   0.0000
  27 H27    215.3819 152.3924 172.9372   H        778 ligands_prepared   0.0000
  28 H28    215.5450 153.4197 174.3855   H        778 ligands_prepared   0.0000
  29 H29    217.7820 153.8129 177.4399   H        778 ligands_prepared   0.0000
  30 H30    217.9655 153.7100 179.9397   H        778 ligands_prepared   0.0000
  31 H31    220.1153 152.8693 180.9664   H        778 ligands_prepared   0.0000
  32 H32    221.8143 152.2431 177.2230   H        778 ligands_prepared   0.0000
@<TRIPOS>BOND
   1  1  2    2
   2  1 10    1
   3  1 16    1
   4  2  3    1
   5  2  7    1
   6  3  4    1
   7  3 17    1
   8  3 18    1
   9  4  5    1
  10  4  9    1
  11  4 19    1
  12  5  6    1
  13  5 20    1
  14  5 21    1
  15  6  7    1
  16  6 22    1
  17  6 23    1
  18  7  8    1
  19  7 24    1
  20  8  9    1
  21  8 25    1
  22  8 26    1
  23  9 27    1
  24  9 28    1
  25 10 11   ar
  26 10 15   ar
  27 11 12   ar
  28 11 29    1
  29 12 13   ar
  30 12 30    1
  31 13 14   ar
  32 13 31    1
  33 14 15   ar
  34 15 32    1
