@<TRIPOS>MOLECULE
CHEMBL1876219_LIG
34 34 1 0 0
SMALL
USER_CHARGES

@<TRIPOS>ATOM
   1 C1     224.7754 152.9558 176.6052   C.3      778 ligands_prepared   0.0000
   2 C2     223.6059 153.2948 177.5066   C.3      778 ligands_prepared   0.0000
   3 O3     222.3867 152.7612 176.9766   O.3      778 ligands_prepared   0.0000
   4 C4     221.2332 152.9924 177.6392   C.ar     778 ligands_prepared   0.0000
   5 C5     221.0942 153.1920 179.0211   C.ar     778 ligands_prepared   0.0000
   6 N6     219.8897 153.4269 179.5758   N.ar     778 ligands_prepared   0.0000
   7 C7     218.8042 153.4808 178.7925   C.ar     778 ligands_prepared   0.0000
   8 C8     218.8626 153.2939 177.3932   C.ar     778 ligands_prepared   0.0000
   9 C9     217.6458 153.3977 176.5990   C.2      778 ligands_prepared   0.0000
  10 C10    217.6383 153.3373 175.2611   C.2      778 ligands_prepared   0.0000
  11 C11    216.3892 153.4827 174.4583   C.3      778 ligands_prepared   0.0000
  12 C12    216.5066 152.6416 173.1840   C.3      778 ligands_prepared   0.0000
  13 N13    217.0168 151.2612 173.5301   N.4      778 ligands_prepared   1.0000
  14 C14    218.4977 151.1817 173.3077   C.3      778 ligands_prepared   0.0000
  15 C15    220.1004 153.0430 176.8110   C.ar     778 ligands_prepared   0.0000
  16 H16    224.9633 151.8771 176.5463   H        778 ligands_prepared   0.0000
  17 H17    225.7003 153.4285 176.9660   H        778 ligands_prepared   0.0000
  18 H18    224.6092 153.3083 175.5784   H        778 ligands_prepared   0.0000
  19 H19    223.7471 152.9715 178.5525   H        778 ligands_prepared   0.0000
  20 H20    223.3648 154.3792 177.4974   H        778 ligands_prepared   0.0000
  21 H21    221.9485 153.1706 179.7084   H        778 ligands_prepared   0.0000
  22 H22    217.8474 153.6784 179.2935   H        778 ligands_prepared   0.0000
  23 H23    216.7215 153.5271 177.1718   H        778 ligands_prepared   0.0000
  24 H24    218.5492 153.1818 174.6765   H        778 ligands_prepared   0.0000
  25 H25    215.4868 153.1914 175.0396   H        778 ligands_prepared   0.0000
  26 H26    216.2329 154.5609 174.2112   H        778 ligands_prepared   0.0000
  27 H27    217.2056 153.1203 172.4567   H        778 ligands_prepared   0.0000
  28 H28    215.5214 152.5498 172.6680   H        778 ligands_prepared   0.0000
  29 H29    216.5290 150.5418 172.9484   H        778 ligands_prepared   0.0000
  30 H30    216.7950 151.0365 174.5264   H        778 ligands_prepared   0.0000
  31 H31    218.8689 150.1718 173.5681   H        778 ligands_prepared   0.0000
  32 H32    219.0380 151.9135 173.9347   H        778 ligands_prepared   0.0000
  33 H33    218.7542 151.3728 172.2493   H        778 ligands_prepared   0.0000
  34 H34    220.2009 152.8975 175.7349   H        778 ligands_prepared   0.0000
@<TRIPOS>BOND
   1  1  2    1
   2  1 16    1
   3  1 17    1
   4  1 18    1
   5  2  3    1
   6  2 19    1
   7  2 20    1
   8  3  4    1
   9  4  5   ar
  10  4 15   ar
  11  5  6   ar
  12  5 21    1
  13  6  7   ar
  14  7  8   ar
  15  7 22    1
  16  8  9    1
  17  8 15   ar
  18  9 10    2
  19  9 23    1
  20 10 11    1
  21 10 24    1
  22 11 12    1
  23 11 25    1
  24 11 26    1
  25 12 13    1
  26 12 27    1
  27 12 28    1
  28 13 14    1
  29 13 29    1
  30 13 30    1
  31 14 31    1
  32 14 32    1
  33 14 33    1
  34 15 34    1
