@<TRIPOS>MOLECULE
CHEMBL388564_ncw_LIG
46 49 1 0 0
SMALL
USER_CHARGES

@<TRIPOS>ATOM
   1 C1     224.5506 160.7791 172.8408   C.3      778 ligands_prepared   0.0000
   2 O2     225.4000 161.5751 173.6637   O.3      778 ligands_prepared   0.0000
   3 C3     226.0633 160.9222 174.6571   C.ar     778 ligands_prepared   0.0000
   4 C4     225.9549 159.5738 174.9574   C.ar     778 ligands_prepared   0.0000
   5 C5     226.6762 159.0314 176.0260   C.ar     778 ligands_prepared   0.0000
   6 C6     227.4409 159.8714 176.8566   C.ar     778 ligands_prepared   0.0000
   7 C7     227.5657 161.2206 176.5314   C.ar     778 ligands_prepared   0.0000
   8 Br8    228.6497 162.4093 177.5239   Br       778 ligands_prepared   0.0000
   9 C9     226.8929 161.7553 175.4359   C.ar     778 ligands_prepared   0.0000
  10 O10    227.0577 163.0722 175.1880   O.3      778 ligands_prepared   0.0000
  11 C11    228.0653 159.2718 178.0737   C.3      778 ligands_prepared   0.0000
  12 C12    227.0796 158.2374 178.6536   C.3      778 ligands_prepared   0.0000
  13 C13    226.8714 157.1522 177.6299   C.ar     778 ligands_prepared   0.0000
  14 C14    226.8886 155.7963 177.9596   C.ar     778 ligands_prepared   0.0000
  15 C15    226.7883 154.8538 176.9337   C.ar     778 ligands_prepared   0.0000
  16 Br16   226.8799 152.9965 177.2572   Br       778 ligands_prepared   0.0000
  17 C17    226.6437 155.2633 175.6127   C.ar     778 ligands_prepared   0.0000
  18 O18    226.6098 154.2983 174.6730   O.3      778 ligands_prepared   0.0000
  19 C19    226.5379 156.6335 175.3013   C.ar     778 ligands_prepared   0.0000
  20 O20    226.4574 157.0058 173.9866   O.3      778 ligands_prepared   0.0000
  21 C21    227.6725 157.5653 173.4739   C.3      778 ligands_prepared   0.0000
  22 C22    226.6664 157.5927 176.3053   C.ar     778 ligands_prepared   0.0000
  23 C23    227.0571 155.3604 179.3767   C.3      778 ligands_prepared   0.0000
  24 C24    226.8052 156.4896 180.3685   C.3      778 ligands_prepared   0.0000
  25 N25    227.6282 157.6924 179.9642   N.4      778 ligands_prepared   1.0000
  26 C26    227.5518 158.7333 181.0403   C.3      778 ligands_prepared   0.0000
  27 H27    224.2836 161.4818 172.0378   H        778 ligands_prepared   0.0000
  28 H28    225.0829 159.9131 172.4314   H        778 ligands_prepared   0.0000
  29 H29    223.6580 160.4721 173.3970   H        778 ligands_prepared   0.0000
  30 H30    225.2927 158.9364 174.3678   H        778 ligands_prepared   0.0000
  31 H31    226.3632 163.6239 175.6623   H        778 ligands_prepared   0.0000
  32 H32    229.0412 158.7948 177.8090   H        778 ligands_prepared   0.0000
  33 H33    228.3195 160.0328 178.8407   H        778 ligands_prepared   0.0000
  34 H34    226.0863 158.7335 178.8754   H        778 ligands_prepared   0.0000
  35 H35    227.2887 153.5747 174.8592   H        778 ligands_prepared   0.0000
  36 H36    227.4771 157.5991 172.3913   H        778 ligands_prepared   0.0000
  37 H37    227.8325 158.5740 173.8676   H        778 ligands_prepared   0.0000
  38 H38    228.5386 156.9333 173.6946   H        778 ligands_prepared   0.0000
  39 H39    228.0787 154.9287 179.5228   H        778 ligands_prepared   0.0000
  40 H40    226.3652 154.5182 179.6306   H        778 ligands_prepared   0.0000
  41 H41    227.0864 156.1760 181.4028   H        778 ligands_prepared   0.0000
  42 H42    225.7249 156.7680 180.4111   H        778 ligands_prepared   0.0000
  43 H43    228.6349 157.3978 179.8282   H        778 ligands_prepared   0.0000
  44 H44    228.2093 159.5933 180.8135   H        778 ligands_prepared   0.0000
  45 H45    226.5214 159.1106 181.1761   H        778 ligands_prepared   0.0000
  46 H46    227.8914 158.3163 182.0091   H        778 ligands_prepared   0.0000
@<TRIPOS>BOND
   1  1  2    1
   2  1 27    1
   3  1 28    1
   4  1 29    1
   5  2  3    1
   6  3  4   ar
   7  3  9   ar
   8  4  5   ar
   9  4 30    1
  10  5  6   ar
  11  5 22    1
  12  6  7   ar
  13  6 11    1
  14  7  8    1
  15  7  9   ar
  16  9 10    1
  17 10 31    1
  18 11 12    1
  19 11 32    1
  20 11 33    1
  21 12 13    1
  22 12 25    1
  23 12 34    1
  24 13 14   ar
  25 13 22   ar
  26 14 15   ar
  27 14 23    1
  28 15 16    1
  29 15 17   ar
  30 17 18    1
  31 17 19   ar
  32 18 35    1
  33 19 20    1
  34 19 22   ar
  35 20 21    1
  36 21 36    1
  37 21 37    1
  38 21 38    1
  39 23 24    1
  40 23 39    1
  41 23 40    1
  42 24 25    1
  43 24 41    1
  44 24 42    1
  45 25 26    1
  46 25 43    1
  47 26 44    1
  48 26 45    1
  49 26 46    1
