@<TRIPOS>MOLECULE
CHEMBL2179883_LIG
58 62 1 0 0
SMALL
USER_CHARGES

@<TRIPOS>ATOM
   1 C1     218.4768 152.1982 173.7604   C.3      778 ligands_prepared   0.0000
   2 C2     218.6573 152.9398 175.0731   C.3      778 ligands_prepared   0.0000
   3 O3     219.8478 152.3444 175.6225   O.3      778 ligands_prepared   0.0000
   4 C4     220.2761 152.8092 176.8146   C.ar     778 ligands_prepared   0.0000
   5 C5     219.2773 153.2850 177.6672   C.ar     778 ligands_prepared   0.0000
   6 C6     219.5946 153.7735 178.9423   C.ar     778 ligands_prepared   0.0000
   7 C7     220.9025 153.8066 179.4097   C.ar     778 ligands_prepared   0.0000
   8 C8     221.9098 153.3378 178.5690   C.ar     778 ligands_prepared   0.0000
   9 C9     223.3453 153.2089 178.6839   C.2      778 ligands_prepared   0.0000
  10 C10    223.7700 152.6580 177.5103   C.2      778 ligands_prepared   0.0000
  11 C11    225.0886 152.2326 177.0156   C.2      778 ligands_prepared   0.0000
  12 O12    225.4100 151.0588 176.8988   O.2      778 ligands_prepared   0.0000
  13 N13    225.9664 153.2469 176.7328   N.am     778 ligands_prepared   0.0000
  14 C14    225.5421 154.6392 176.8746   C.3      778 ligands_prepared   0.0000
  15 C15    225.3454 155.2981 175.4878   C.3      778 ligands_prepared   0.0000
  16 C16    224.8021 156.7116 175.7459   C.3      778 ligands_prepared   0.0000
  17 C17    225.8852 157.5429 176.4451   C.3      778 ligands_prepared   0.0000
  18 N18    227.0450 156.6625 176.8652   N.4      778 ligands_prepared   1.0000
  19 C19    227.7100 156.1521 175.5963   C.3      778 ligands_prepared   0.0000
  20 C20    226.6795 155.4044 174.7367   C.3      778 ligands_prepared   0.0000
  21 C21    226.6103 155.4463 177.6777   C.3      778 ligands_prepared   0.0000
  22 C22    226.1809 155.7930 179.1073   C.3      778 ligands_prepared   0.0000
  23 C23    226.9627 156.8309 179.8360   C.ar     778 ligands_prepared   0.0000
  24 C24    226.9477 158.1748 179.4576   C.ar     778 ligands_prepared   0.0000
  25 C25    227.6931 159.1027 180.1801   C.ar     778 ligands_prepared   0.0000
  26 C26    228.4146 158.6614 181.2948   C.ar     778 ligands_prepared   0.0000
  27 N27    228.4004 157.3746 181.6978   N.ar     778 ligands_prepared   0.0000
  28 C28    227.6921 156.4791 180.9859   C.ar     778 ligands_prepared   0.0000
  29 O29    222.7266 152.4153 176.6188   O.3      778 ligands_prepared   0.0000
  30 C30    221.5892 152.8411 177.2841   C.ar     778 ligands_prepared   0.0000
  31 H31    218.3405 151.1196 173.9167   H        778 ligands_prepared   0.0000
  32 H32    217.5886 152.5681 173.2279   H        778 ligands_prepared   0.0000
  33 H33    219.3407 152.3281 173.0941   H        778 ligands_prepared   0.0000
  34 H34    218.8335 154.0218 174.9348   H        778 ligands_prepared   0.0000
  35 H35    217.8184 152.7823 175.7721   H        778 ligands_prepared   0.0000
  36 H36    218.2396 153.2762 177.3284   H        778 ligands_prepared   0.0000
  37 H37    218.7846 154.1378 179.5806   H        778 ligands_prepared   0.0000
  38 H38    221.1434 154.1848 180.4019   H        778 ligands_prepared   0.0000
  39 H39    223.9267 153.4961 179.5426   H        778 ligands_prepared   0.0000
  40 H40    226.9374 153.0705 176.4821   H        778 ligands_prepared   0.0000
  41 H41    224.5593 154.6469 177.4266   H        778 ligands_prepared   0.0000
  42 H42    224.6135 154.7061 174.8873   H        778 ligands_prepared   0.0000
  43 H43    223.8710 156.6781 176.3482   H        778 ligands_prepared   0.0000
  44 H44    224.5015 157.1898 174.7915   H        778 ligands_prepared   0.0000
  45 H45    226.2791 158.3356 175.7621   H        778 ligands_prepared   0.0000
  46 H46    225.4905 158.0869 177.3279   H        778 ligands_prepared   0.0000
  47 H47    227.7343 157.2310 177.4269   H        778 ligands_prepared   0.0000
  48 H48    228.5704 155.4995 175.8705   H        778 ligands_prepared   0.0000
  49 H49    228.1479 157.0198 175.0491   H        778 ligands_prepared   0.0000
  50 H50    226.5222 155.9294 173.7707   H        778 ligands_prepared   0.0000
  51 H51    227.0633 154.4057 174.4475   H        778 ligands_prepared   0.0000
  52 H52    227.5438 154.8040 177.7764   H        778 ligands_prepared   0.0000
  53 H53    225.1014 156.1130 179.0591   H        778 ligands_prepared   0.0000
  54 H54    226.1321 154.8521 179.7084   H        778 ligands_prepared   0.0000
  55 H55    226.3498 158.5063 178.6009   H        778 ligands_prepared   0.0000
  56 H56    227.7120 160.1528 179.8871   H        778 ligands_prepared   0.0000
  57 H57    229.0231 159.3509 181.8975   H        778 ligands_prepared   0.0000
  58 H58    227.7056 155.4433 181.3583   H        778 ligands_prepared   0.0000
@<TRIPOS>BOND
   1  1  2    1
   2  1 31    1
   3  1 32    1
   4  1 33    1
   5  2  3    1
   6  2 34    1
   7  2 35    1
   8  3  4    1
   9  4  5   ar
  10  4 30   ar
  11  5  6   ar
  12  5 36    1
  13  6  7   ar
  14  6 37    1
  15  7  8   ar
  16  7 38    1
  17  8  9    1
  18  8 30   ar
  19  9 10    2
  20  9 39    1
  21 10 11    1
  22 10 29    1
  23 11 12    2
  24 11 13   am
  25 13 14    1
  26 13 40    1
  27 14 15    1
  28 14 21    1
  29 14 41    1
  30 15 16    1
  31 15 20    1
  32 15 42    1
  33 16 17    1
  34 16 43    1
  35 16 44    1
  36 17 18    1
  37 17 45    1
  38 17 46    1
  39 18 19    1
  40 18 21    1
  41 18 47    1
  42 19 20    1
  43 19 48    1
  44 19 49    1
  45 20 50    1
  46 20 51    1
  47 21 22    1
  48 21 52    1
  49 22 23    1
  50 22 53    1
  51 22 54    1
  52 23 24   ar
  53 23 28   ar
  54 24 25   ar
  55 24 55    1
  56 25 26   ar
  57 25 56    1
  58 26 27   ar
  59 26 57    1
  60 27 28   ar
  61 28 58    1
  62 29 30    1
