@<TRIPOS>MOLECULE
CHEMBL2261108_LIG
29 29 1 0 0
SMALL
USER_CHARGES

@<TRIPOS>ATOM
   1 C1     216.4021 152.2027 172.5672   C.3      778 ligands_prepared   0.0000
   2 N2     217.0401 152.1188 173.9227   N.4      778 ligands_prepared   1.0000
   3 C3     218.4032 151.5047 173.8006   C.3      778 ligands_prepared   0.0000
   4 C4     217.1453 153.5023 174.5163   C.3      778 ligands_prepared   0.0000
   5 C5     217.3332 153.4006 176.0360   C.3      778 ligands_prepared   0.0000
   6 O6     218.7239 153.1022 176.1758   O.3      778 ligands_prepared   0.0000
   7 C7     219.2475 153.2339 177.4239   C.ar     778 ligands_prepared   0.0000
   8 C8     220.6472 153.1166 177.4502   C.ar     778 ligands_prepared   0.0000
   9 C9     221.3053 153.2409 178.6674   C.ar     778 ligands_prepared   0.0000
  10 C10    220.5971 153.4773 179.8455   C.ar     778 ligands_prepared   0.0000
  11 C11    219.2064 153.5840 179.7749   C.ar     778 ligands_prepared   0.0000
  12 O12    218.4412 153.8112 180.8661   O.3      778 ligands_prepared   0.0000
  13 C13    218.4994 153.4657 178.5735   C.ar     778 ligands_prepared   0.0000
  14 H14    215.3818 152.6239 172.6384   H        778 ligands_prepared   0.0000
  15 H15    216.9894 152.8295 171.8732   H        778 ligands_prepared   0.0000
  16 H16    216.3107 151.1934 172.1203   H        778 ligands_prepared   0.0000
  17 H17    216.4374 151.5123 174.5473   H        778 ligands_prepared   0.0000
  18 H18    218.8634 151.3550 174.7945   H        778 ligands_prepared   0.0000
  19 H19    219.0839 152.1287 173.1950   H        778 ligands_prepared   0.0000
  20 H20    218.3409 150.5086 173.3201   H        778 ligands_prepared   0.0000
  21 H21    216.2149 154.0820 174.2839   H        778 ligands_prepared   0.0000
  22 H22    217.9816 154.0694 174.0427   H        778 ligands_prepared   0.0000
  23 H23    216.7390 152.5793 176.4821   H        778 ligands_prepared   0.0000
  24 H24    217.1079 154.3581 176.5491   H        778 ligands_prepared   0.0000
  25 H25    221.1934 152.9318 176.5281   H        778 ligands_prepared   0.0000
  26 H26    222.3965 153.1535 178.7022   H        778 ligands_prepared   0.0000
  27 H27    221.1138 153.5777 180.7971   H        778 ligands_prepared   0.0000
  28 H28    218.8545 153.4626 181.7087   H        778 ligands_prepared   0.0000
  29 H29    217.4189 153.5583 178.5706   H        778 ligands_prepared   0.0000
@<TRIPOS>BOND
   1  1  2    1
   2  1 14    1
   3  1 15    1
   4  1 16    1
   5  2  3    1
   6  2  4    1
   7  2 17    1
   8  3 18    1
   9  3 19    1
  10  3 20    1
  11  4  5    1
  12  4 21    1
  13  4 22    1
  14  5  6    1
  15  5 23    1
  16  5 24    1
  17  6  7    1
  18  7  8   ar
  19  7 13   ar
  20  8  9   ar
  21  8 25    1
  22  9 10   ar
  23  9 26    1
  24 10 11   ar
  25 10 27    1
  26 11 12    1
  27 11 13   ar
  28 12 28    1
  29 13 29    1
