@<TRIPOS>MOLECULE
CHEMBL2332280_LIG
45 47 1 0 0
SMALL
USER_CHARGES

@<TRIPOS>ATOM
   1 C1     220.3262 153.1999 176.0667   C.2      778 ligands_prepared   0.0000
   2 C2     218.8351 153.1920 175.9838   C.3      778 ligands_prepared   0.0000
   3 N3     218.3120 152.0175 175.1775   N.4      778 ligands_prepared   1.0000
   4 C4     216.8174 152.1464 174.9325   C.3      778 ligands_prepared   0.0000
   5 C5     216.5647 153.0609 173.7388   C.3      778 ligands_prepared   0.0000
   6 C6     217.0873 152.4246 172.4428   C.3      778 ligands_prepared   0.0000
   7 C7     218.2141 151.4245 172.7295   C.3      778 ligands_prepared   0.0000
   8 C8     219.0943 151.9124 173.8733   C.3      778 ligands_prepared   0.0000
   9 C9     221.0361 153.2999 177.2005   C.2      778 ligands_prepared   0.0000
  10 C10    220.4203 153.4640 178.5266   C.ar     778 ligands_prepared   0.0000
  11 C11    219.0891 153.1003 178.7317   C.ar     778 ligands_prepared   0.0000
  12 C12    218.5004 153.3069 179.9768   C.ar     778 ligands_prepared   0.0000
  13 C13    219.2413 153.8695 181.0146   C.ar     778 ligands_prepared   0.0000
  14 C14    220.5772 154.2130 180.8152   C.ar     778 ligands_prepared   0.0000
  15 C15    221.1724 154.0060 179.5730   C.ar     778 ligands_prepared   0.0000
  16 C16    222.5040 153.2641 177.1934   C.ar     778 ligands_prepared   0.0000
  17 C17    223.1815 152.0970 177.5538   C.ar     778 ligands_prepared   0.0000
  18 C18    224.5738 152.0716 177.5329   C.ar     778 ligands_prepared   0.0000
  19 C19    225.2895 153.2064 177.1559   C.ar     778 ligands_prepared   0.0000
  20 C20    224.6122 154.3736 176.8029   C.ar     778 ligands_prepared   0.0000
  21 C21    223.2208 154.4037 176.8172   C.ar     778 ligands_prepared   0.0000
  22 H22    220.8278 153.0736 175.1003   H        778 ligands_prepared   0.0000
  23 H23    218.4699 154.1459 175.5186   H        778 ligands_prepared   0.0000
  24 H24    218.3715 153.1619 177.0031   H        778 ligands_prepared   0.0000
  25 H25    218.4707 151.1309 175.7251   H        778 ligands_prepared   0.0000
  26 H26    216.3733 151.1373 174.7561   H        778 ligands_prepared   0.0000
  27 H27    216.3412 152.5411 175.8600   H        778 ligands_prepared   0.0000
  28 H28    215.4747 153.2649 173.6559   H        778 ligands_prepared   0.0000
  29 H29    217.0244 154.0569 173.8984   H        778 ligands_prepared   0.0000
  30 H30    217.4425 153.2171 171.7548   H        778 ligands_prepared   0.0000
  31 H31    216.2657 151.9140 171.9042   H        778 ligands_prepared   0.0000
  32 H32    218.8379 151.2754 171.8210   H        778 ligands_prepared   0.0000
  33 H33    217.7996 150.4204 172.9531   H        778 ligands_prepared   0.0000
  34 H34    219.9724 151.2406 174.0195   H        778 ligands_prepared   0.0000
  35 H35    219.5085 152.9221 173.6362   H        778 ligands_prepared   0.0000
  36 H36    218.5110 152.6543 177.9192   H        778 ligands_prepared   0.0000
  37 H37    217.4559 153.0325 180.1360   H        778 ligands_prepared   0.0000
  38 H38    218.7753 154.0393 181.9876   H        778 ligands_prepared   0.0000
  39 H39    221.1596 154.6472 181.6306   H        778 ligands_prepared   0.0000
  40 H40    222.2212 154.2628 179.4181   H        778 ligands_prepared   0.0000
  41 H41    222.6208 151.2084 177.8464   H        778 ligands_prepared   0.0000
  42 H42    225.1027 151.1594 177.8137   H        778 ligands_prepared   0.0000
  43 H43    226.3801 153.1832 177.1377   H        778 ligands_prepared   0.0000
  44 H44    225.1706 155.2653 176.5133   H        778 ligands_prepared   0.0000
  45 H45    222.6856 155.3124 176.5380   H        778 ligands_prepared   0.0000
@<TRIPOS>BOND
   1  1  2    1
   2  1  9    2
   3  1 22    1
   4  2  3    1
   5  2 23    1
   6  2 24    1
   7  4  3    1
   8  3  8    1
   9  3 25    1
  10  4  5    1
  11  4 26    1
  12  4 27    1
  13  5  6    1
  14  5 28    1
  15  5 29    1
  16  6  7    1
  17  6 30    1
  18  6 31    1
  19  7  8    1
  20  7 32    1
  21  7 33    1
  22  8 34    1
  23  8 35    1
  24  9 10    1
  25  9 16    1
  26 10 11   ar
  27 10 15   ar
  28 11 12   ar
  29 11 36    1
  30 12 13   ar
  31 12 37    1
  32 13 14   ar
  33 13 38    1
  34 14 15   ar
  35 14 39    1
  36 15 40    1
  37 16 17   ar
  38 16 21   ar
  39 17 18   ar
  40 17 41    1
  41 18 19   ar
  42 18 42    1
  43 19 20   ar
  44 19 43    1
  45 20 21   ar
  46 20 44    1
  47 21 45    1
