@<TRIPOS>MOLECULE
CHEMBL3329540_LIG
27 29 1 0 0
SMALL
USER_CHARGES

@<TRIPOS>ATOM
   1 O1     220.9243 152.4994 176.1095   O.2      778 ligands_prepared   0.0000
   2 C2     219.7731 152.8798 176.2965   C.2      778 ligands_prepared   0.0000
   3 C3     219.3544 153.5951 177.5305   C.3      778 ligands_prepared   0.0000
   4 C4     220.4127 153.9989 178.5406   C.3      778 ligands_prepared   0.0000
   5 C5     219.4674 152.8765 178.8675   C.3      778 ligands_prepared   0.0000
   6 F6     218.4894 153.1438 179.7441   F        778 ligands_prepared   0.0000
   7 N7     218.8275 152.6337 175.3349   N.am     778 ligands_prepared   0.0000
   8 C8     217.4421 153.0937 175.5801   C.3      778 ligands_prepared   0.0000
   9 C9     216.4606 152.4007 174.6272   C.3      778 ligands_prepared   0.0000
  10 C10    216.9290 152.6175 173.1598   C.3      778 ligands_prepared   0.0000
  11 C11    217.8789 151.4101 173.3964   C.3      778 ligands_prepared   0.0000
  12 C12    219.1553 151.8979 174.0960   C.3      778 ligands_prepared   0.0000
  13 N13    216.9075 150.9201 174.5012   N.4      778 ligands_prepared   1.0000
  14 H14    218.5153 154.2921 177.3517   H        778 ligands_prepared   0.0000
  15 H15    220.3323 154.9702 179.0340   H        778 ligands_prepared   0.0000
  16 H16    221.4619 153.7734 178.3371   H        778 ligands_prepared   0.0000
  17 H17    219.7960 151.8251 178.9321   H        778 ligands_prepared   0.0000
  18 H18    217.3818 154.2027 175.4424   H        778 ligands_prepared   0.0000
  19 H19    217.1710 152.8984 176.6493   H        778 ligands_prepared   0.0000
  20 H20    215.3963 152.5419 174.8785   H        778 ligands_prepared   0.0000
  21 H21    216.1548 152.4537 172.3982   H        778 ligands_prepared   0.0000
  22 H22    217.4026 153.5779 172.9312   H        778 ligands_prepared   0.0000
  23 H23    218.0515 150.6903 172.5787   H        778 ligands_prepared   0.0000
  24 H24    219.7308 152.5590 173.3996   H        778 ligands_prepared   0.0000
  25 H25    219.8200 151.0291 174.3349   H        778 ligands_prepared   0.0000
  26 H26    217.3397 150.5017 175.3363   H        778 ligands_prepared   0.0000
  27 H27    216.1684 150.2829 174.1602   H        778 ligands_prepared   0.0000
@<TRIPOS>BOND
   1  1  2    2
   2  2  3    1
   3  2  7   am
   4  3  4    1
   5  3  5    1
   6  3 14    1
   7  4  5    1
   8  4 15    1
   9  4 16    1
  10  5  6    1
  11  5 17    1
  12  8  7    1
  13  7 12    1
  14  8  9    1
  15  8 18    1
  16  8 19    1
  17  9 10    1
  18  9 13    1
  19  9 20    1
  20 10 11    1
  21 10 21    1
  22 10 22    1
  23 11 12    1
  24 11 13    1
  25 11 23    1
  26 12 24    1
  27 12 25    1
  28 13 26    1
  29 13 27    1
