@<TRIPOS>MOLECULE
CHEMBL2179856_LIG
47 50 1 0 0
SMALL
USER_CHARGES

@<TRIPOS>ATOM
   1 O1     224.8191 151.1860 176.8856   O.2      778 ligands_prepared   0.0000
   2 C2     224.0813 152.1274 177.1291   C.2      778 ligands_prepared   0.0000
   3 N3     222.7768 151.9720 177.4967   N.am     778 ligands_prepared   0.0000
   4 C4     221.9314 153.1308 177.7718   C.3      778 ligands_prepared   0.0000
   5 C5     221.8140 153.3968 179.2957   C.3      778 ligands_prepared   0.0000
   6 C6     220.9002 152.3543 179.9551   C.3      778 ligands_prepared   0.0000
   7 C7     219.4702 152.5057 179.4138   C.3      778 ligands_prepared   0.0000
   8 N8     219.4811 153.4202 178.1969   N.4      778 ligands_prepared   1.0000
   9 C9     219.8497 154.8122 178.6726   C.3      778 ligands_prepared   0.0000
  10 C10    221.1755 154.7846 179.4482   C.3      778 ligands_prepared   0.0000
  11 C11    220.5018 152.8541 177.2130   C.3      778 ligands_prepared   0.0000
  12 C12    220.2753 153.3315 175.7773   C.3      778 ligands_prepared   0.0000
  13 C13    219.0927 152.7796 175.0599   C.ar     778 ligands_prepared   0.0000
  14 C14    217.7970 153.0797 175.4894   C.ar     778 ligands_prepared   0.0000
  15 C15    216.7089 152.5460 174.8058   C.ar     778 ligands_prepared   0.0000
  16 C16    216.9499 151.7073 173.7109   C.ar     778 ligands_prepared   0.0000
  17 N17    218.1951 151.3840 173.3100   N.ar     778 ligands_prepared   0.0000
  18 C18    219.2447 151.9020 173.9758   C.ar     778 ligands_prepared   0.0000
  19 C19    224.5684 153.5504 177.1060   C.ar     778 ligands_prepared   0.0000
  20 C20    225.4391 153.9971 178.1003   C.ar     778 ligands_prepared   0.0000
  21 C21    225.8296 155.3321 178.0228   C.ar     778 ligands_prepared   0.0000
  22 Cl22   226.8870 155.9504 179.2074   Cl       778 ligands_prepared   0.0000
  23 C23    225.3801 156.1633 177.0082   C.ar     778 ligands_prepared   0.0000
  24 C24    224.5205 155.6055 176.0491   C.ar     778 ligands_prepared   0.0000
  25 N25    224.1190 154.3213 176.0968   N.ar     778 ligands_prepared   0.0000
  26 H26    222.3587 151.0489 177.6235   H        778 ligands_prepared   0.0000
  27 H27    222.3772 154.0398 177.2813   H        778 ligands_prepared   0.0000
  28 H28    222.8254 153.3751 179.7654   H        778 ligands_prepared   0.0000
  29 H29    221.2785 151.3270 179.7877   H        778 ligands_prepared   0.0000
  30 H30    220.9069 152.4761 181.0573   H        778 ligands_prepared   0.0000
  31 H31    219.0277 151.5258 179.1278   H        778 ligands_prepared   0.0000
  32 H32    218.7867 152.9390 180.1796   H        778 ligands_prepared   0.0000
  33 H33    218.5288 153.4389 177.7496   H        778 ligands_prepared   0.0000
  34 H34    219.0183 155.1942 179.3138   H        778 ligands_prepared   0.0000
  35 H35    219.9013 155.5014 177.8052   H        778 ligands_prepared   0.0000
  36 H36    221.8572 155.5803 179.0878   H        778 ligands_prepared   0.0000
  37 H37    221.0089 155.0158 180.5209   H        778 ligands_prepared   0.0000
  38 H38    220.3264 151.7306 177.2015   H        778 ligands_prepared   0.0000
  39 H39    221.2067 153.1520 175.1814   H        778 ligands_prepared   0.0000
  40 H40    220.2135 154.4524 175.8013   H        778 ligands_prepared   0.0000
  41 H41    217.6377 153.7240 176.3593   H        778 ligands_prepared   0.0000
  42 H42    215.6891 152.7749 175.1183   H        778 ligands_prepared   0.0000
  43 H43    216.1241 151.2672 173.1331   H        778 ligands_prepared   0.0000
  44 H44    220.2405 151.5876 173.6233   H        778 ligands_prepared   0.0000
  45 H45    225.7844 153.3304 178.8952   H        778 ligands_prepared   0.0000
  46 H46    225.6695 157.2161 176.9430   H        778 ligands_prepared   0.0000
  47 H47    224.1319 156.2048 175.2082   H        778 ligands_prepared   0.0000
@<TRIPOS>BOND
   1  1  2    2
   2  2  3   am
   3  2 19    1
   4  3  4    1
   5  3 26    1
   6  4  5    1
   7  4 11    1
   8  4 27    1
   9  5  6    1
  10  5 10    1
  11  5 28    1
  12  6  7    1
  13  6 29    1
  14  6 30    1
  15  7  8    1
  16  7 31    1
  17  7 32    1
  18  8  9    1
  19  8 11    1
  20  8 33    1
  21  9 10    1
  22  9 34    1
  23  9 35    1
  24 10 36    1
  25 10 37    1
  26 11 12    1
  27 11 38    1
  28 12 13    1
  29 12 39    1
  30 12 40    1
  31 13 14   ar
  32 13 18   ar
  33 14 15   ar
  34 14 41    1
  35 15 16   ar
  36 15 42    1
  37 16 17   ar
  38 16 43    1
  39 17 18   ar
  40 18 44    1
  41 19 20   ar
  42 19 25   ar
  43 20 21   ar
  44 20 45    1
  45 21 22    1
  46 21 23   ar
  47 23 24   ar
  48 23 46    1
  49 24 25   ar
  50 24 47    1
