@<TRIPOS>MOLECULE
CHEMBL3329542_LIG
30 32 1 0 0
SMALL
USER_CHARGES

@<TRIPOS>ATOM
   1 C1     220.2894 154.0950 179.3724   C.3      778 ligands_prepared   0.0000
   2 C2     221.0835 153.3751 178.3210   C.3      778 ligands_prepared   0.0000
   3 C3     220.8868 151.8978 178.0991   C.3      778 ligands_prepared   0.0000
   4 C4     220.4146 152.8747 177.0416   C.3      778 ligands_prepared   0.0000
   5 C5     218.9536 153.0427 176.8431   C.2      778 ligands_prepared   0.0000
   6 O6     218.2002 153.4467 177.7231   O.2      778 ligands_prepared   0.0000
   7 N7     218.4099 152.6954 175.6297   N.am     778 ligands_prepared   0.0000
   8 C8     216.9528 152.7477 175.3906   C.3      778 ligands_prepared   0.0000
   9 C9     216.5704 151.9065 174.1654   C.3      778 ligands_prepared   0.0000
  10 C10    217.4039 152.3740 172.9381   C.3      778 ligands_prepared   0.0000
  11 C11    218.5317 151.4530 173.4843   C.3      778 ligands_prepared   0.0000
  12 C12    219.3171 152.1990 174.5693   C.3      778 ligands_prepared   0.0000
  13 N13    217.4362 150.6187 174.2007   N.4      778 ligands_prepared   1.0000
  14 H14    219.2865 153.6713 179.5188   H        778 ligands_prepared   0.0000
  15 H15    220.1554 155.1571 179.1260   H        778 ligands_prepared   0.0000
  16 H16    220.7983 154.0554 180.3478   H        778 ligands_prepared   0.0000
  17 H17    222.1005 153.7863 178.2076   H        778 ligands_prepared   0.0000
  18 H18    221.7411 151.2576 177.8845   H        778 ligands_prepared   0.0000
  19 H19    220.1432 151.3561 178.6854   H        778 ligands_prepared   0.0000
  20 H20    220.9825 152.9470 176.0999   H        778 ligands_prepared   0.0000
  21 H21    216.6276 153.8075 175.2282   H        778 ligands_prepared   0.0000
  22 H22    216.4073 152.3903 176.2994   H        778 ligands_prepared   0.0000
  23 H23    215.4887 151.7320 174.0465   H        778 ligands_prepared   0.0000
  24 H24    216.9955 152.0770 171.9623   H        778 ligands_prepared   0.0000
  25 H25    217.6291 153.4455 172.8773   H        778 ligands_prepared   0.0000
  26 H26    219.1534 150.8839 172.7733   H        778 ligands_prepared   0.0000
  27 H27    220.0957 151.5386 175.0275   H        778 ligands_prepared   0.0000
  28 H28    219.8713 153.0584 174.1127   H        778 ligands_prepared   0.0000
  29 H29    217.6753 150.2574 175.1322   H        778 ligands_prepared   0.0000
  30 H30    217.0593 149.8395 173.6352   H        778 ligands_prepared   0.0000
@<TRIPOS>BOND
   1  1  2    1
   2  1 14    1
   3  1 15    1
   4  1 16    1
   5  2  3    1
   6  2  4    1
   7  2 17    1
   8  3  4    1
   9  3 18    1
  10  3 19    1
  11  4  5    1
  12  4 20    1
  13  5  6    2
  14  5  7   am
  15  8  7    1
  16  7 12    1
  17  8  9    1
  18  8 21    1
  19  8 22    1
  20  9 10    1
  21  9 13    1
  22  9 23    1
  23 10 11    1
  24 10 24    1
  25 10 25    1
  26 11 12    1
  27 11 13    1
  28 11 26    1
  29 12 27    1
  30 12 28    1
  31 13 29    1
  32 13 30    1
