@<TRIPOS>MOLECULE
CHEMBL2179840_LIG
48 51 1 0 0
SMALL
USER_CHARGES

@<TRIPOS>ATOM
   1 O1     221.7405 152.7284 176.2375   O.2      778 ligands_prepared   0.0000
   2 C2     221.8946 153.3267 177.2914   C.2      778 ligands_prepared   0.0000
   3 N3     223.0610 153.9870 177.5753   N.am     778 ligands_prepared   0.0000
   4 C4     224.1411 154.0450 176.5923   C.3      778 ligands_prepared   0.0000
   5 C5     224.9246 152.7080 176.5713   C.3      778 ligands_prepared   0.0000
   6 C6     225.8036 152.5847 177.8261   C.3      778 ligands_prepared   0.0000
   7 C7     226.8809 153.6800 177.8154   C.3      778 ligands_prepared   0.0000
   8 N8     226.5621 154.6943 176.7275   N.4      778 ligands_prepared   1.0000
   9 C9     226.7089 153.9995 175.3872   C.3      778 ligands_prepared   0.0000
  10 C10    225.8303 152.7407 175.3336   C.3      778 ligands_prepared   0.0000
  11 C11    225.1371 155.1887 176.9713   C.3      778 ligands_prepared   0.0000
  12 C12    224.8641 156.5369 176.2979   C.3      778 ligands_prepared   0.0000
  13 C13    225.8071 157.6516 176.5932   C.ar     778 ligands_prepared   0.0000
  14 C14    226.7001 157.5887 177.6664   C.ar     778 ligands_prepared   0.0000
  15 C15    227.5730 158.6474 177.8980   C.ar     778 ligands_prepared   0.0000
  16 C16    227.5459 159.7410 177.0259   C.ar     778 ligands_prepared   0.0000
  17 N17    226.7141 159.7973 175.9649   N.ar     778 ligands_prepared   0.0000
  18 C18    225.8667 158.7741 175.7514   C.ar     778 ligands_prepared   0.0000
  19 C19    220.8341 153.4010 178.3281   C.ar     778 ligands_prepared   0.0000
  20 C20    221.1793 153.7008 179.6454   C.ar     778 ligands_prepared   0.0000
  21 C21    220.1857 153.7397 180.6237   C.ar     778 ligands_prepared   0.0000
  22 C22    218.8563 153.4798 180.2908   C.ar     778 ligands_prepared   0.0000
  23 C23    218.5021 153.1730 178.9748   C.ar     778 ligands_prepared   0.0000
  24 C24    219.5043 153.1398 178.0185   C.ar     778 ligands_prepared   0.0000
  25 Cl25   219.1003 152.7518 176.3987   Cl       778 ligands_prepared   0.0000
  26 H26    223.2026 154.4689 178.4593   H        778 ligands_prepared   0.0000
  27 H27    223.6966 154.2366 175.5769   H        778 ligands_prepared   0.0000
  28 H28    224.2153 151.8492 176.5104   H        778 ligands_prepared   0.0000
  29 H29    225.1939 152.6392 178.7487   H        778 ligands_prepared   0.0000
  30 H30    226.2774 151.5822 177.8644   H        778 ligands_prepared   0.0000
  31 H31    226.9483 154.2078 178.7946   H        778 ligands_prepared   0.0000
  32 H32    227.8951 153.2581 177.6250   H        778 ligands_prepared   0.0000
  33 H33    227.2314 155.5063 176.7804   H        778 ligands_prepared   0.0000
  34 H34    227.7856 153.7419 175.2408   H        778 ligands_prepared   0.0000
  35 H35    226.4504 154.7046 174.5705   H        778 ligands_prepared   0.0000
  36 H36    225.2337 152.7161 174.4000   H        778 ligands_prepared   0.0000
  37 H37    226.4570 151.8248 175.2938   H        778 ligands_prepared   0.0000
  38 H38    225.0617 155.3704 178.0871   H        778 ligands_prepared   0.0000
  39 H39    223.8121 156.8467 176.5149   H        778 ligands_prepared   0.0000
  40 H40    224.8521 156.3543 175.1892   H        778 ligands_prepared   0.0000
  41 H41    226.7222 156.7065 178.3170   H        778 ligands_prepared   0.0000
  42 H42    228.2672 158.6248 178.7384   H        778 ligands_prepared   0.0000
  43 H43    228.2124 160.6039 177.1636   H        778 ligands_prepared   0.0000
  44 H44    225.2192 158.8626 174.8661   H        778 ligands_prepared   0.0000
  45 H45    222.2217 153.9044 179.9066   H        778 ligands_prepared   0.0000
  46 H46    220.4532 153.9738 181.6574   H        778 ligands_prepared   0.0000
  47 H47    218.0838 153.5157 181.0641   H        778 ligands_prepared   0.0000
  48 H48    217.4609 152.9666 178.7178   H        778 ligands_prepared   0.0000
@<TRIPOS>BOND
   1  1  2    2
   2  2  3   am
   3  2 19    1
   4  3  4    1
   5  3 26    1
   6  4  5    1
   7  4 11    1
   8  4 27    1
   9  5  6    1
  10  5 10    1
  11  5 28    1
  12  6  7    1
  13  6 29    1
  14  6 30    1
  15  7  8    1
  16  7 31    1
  17  7 32    1
  18  8  9    1
  19  8 11    1
  20  8 33    1
  21  9 10    1
  22  9 34    1
  23  9 35    1
  24 10 36    1
  25 10 37    1
  26 11 12    1
  27 11 38    1
  28 12 13    1
  29 12 39    1
  30 12 40    1
  31 13 14   ar
  32 13 18   ar
  33 14 15   ar
  34 14 41    1
  35 15 16   ar
  36 15 42    1
  37 16 17   ar
  38 16 43    1
  39 17 18   ar
  40 18 44    1
  41 19 20   ar
  42 19 24   ar
  43 20 21   ar
  44 20 45    1
  45 21 22   ar
  46 21 46    1
  47 22 23   ar
  48 22 47    1
  49 23 24   ar
  50 23 48    1
  51 24 25    1
