@<TRIPOS>MOLECULE
CHEMBL2179880_LIG
51 55 1 0 0
SMALL
USER_CHARGES

@<TRIPOS>ATOM
   1 O1     224.7053 151.0333 176.9076   O.2      778 ligands_prepared   0.0000
   2 C2     224.0105 152.0111 177.1358   C.2      778 ligands_prepared   0.0000
   3 N3     222.7027 151.9019 177.5228   N.am     778 ligands_prepared   0.0000
   4 C4     221.8792 153.0914 177.7341   C.3      778 ligands_prepared   0.0000
   5 C5     221.7490 153.4216 179.2448   C.3      778 ligands_prepared   0.0000
   6 C6     220.8603 152.3850 179.9425   C.3      778 ligands_prepared   0.0000
   7 C7     219.4358 152.4650 179.3725   C.3      778 ligands_prepared   0.0000
   8 N8     219.4197 153.3604 178.1442   N.4      778 ligands_prepared   1.0000
   9 C9     219.7644 154.7783 178.5568   C.3      778 ligands_prepared   0.0000
  10 C10    221.0783 154.7988 179.3518   C.3      778 ligands_prepared   0.0000
  11 C11    220.4506 152.8219 177.1595   C.3      778 ligands_prepared   0.0000
  12 C12    220.2438 153.4435 175.7725   C.3      778 ligands_prepared   0.0000
  13 C13    219.1013 152.7700 175.0875   C.ar     778 ligands_prepared   0.0000
  14 C14    219.3129 151.8965 174.0177   C.ar     778 ligands_prepared   0.0000
  15 C15    218.2173 151.3338 173.3694   C.ar     778 ligands_prepared   0.0000
  16 C16    216.9332 151.6380 173.8350   C.ar     778 ligands_prepared   0.0000
  17 N17    216.7201 152.4511 174.8893   N.ar     778 ligands_prepared   0.0000
  18 C18    217.7811 153.0128 175.4985   C.ar     778 ligands_prepared   0.0000
  19 C19    224.5276 153.3885 177.0507   C.2      778 ligands_prepared   0.0000
  20 C20    224.3085 154.4257 176.1939   C.2      778 ligands_prepared   0.0000
  21 C21    225.0879 155.5320 176.7005   C.ar     778 ligands_prepared   0.0000
  22 C22    225.3005 156.8520 176.3045   C.ar     778 ligands_prepared   0.0000
  23 C23    226.1666 157.6023 177.0832   C.ar     778 ligands_prepared   0.0000
  24 Br24   226.4905 159.4094 176.5869   Br       778 ligands_prepared   0.0000
  25 C25    226.8215 157.1070 178.2202   C.ar     778 ligands_prepared   0.0000
  26 C26    226.6120 155.7973 178.6340   C.ar     778 ligands_prepared   0.0000
  27 C27    225.7418 155.0409 177.8588   C.ar     778 ligands_prepared   0.0000
  28 O28    225.3975 153.7248 178.0919   O.3      778 ligands_prepared   0.0000
  29 H29    222.2679 150.9970 177.7049   H        778 ligands_prepared   0.0000
  30 H30    222.3484 153.9695 177.2036   H        778 ligands_prepared   0.0000
  31 H31    222.7609 153.4418 179.7167   H        778 ligands_prepared   0.0000
  32 H32    220.8448 152.5634 181.0375   H        778 ligands_prepared   0.0000
  33 H33    221.2757 151.3637 179.8347   H        778 ligands_prepared   0.0000
  34 H34    218.7167 152.8712 180.1180   H        778 ligands_prepared   0.0000
  35 H35    219.0500 151.4588 179.0895   H        778 ligands_prepared   0.0000
  36 H36    218.4622 153.3413 177.7025   H        778 ligands_prepared   0.0000
  37 H37    218.9202 155.1892 179.1568   H        778 ligands_prepared   0.0000
  38 H38    219.8289 155.4152 177.6444   H        778 ligands_prepared   0.0000
  39 H39    220.8888 155.0504 180.4155   H        778 ligands_prepared   0.0000
  40 H40    221.7486 155.6007 178.9826   H        778 ligands_prepared   0.0000
  41 H41    220.2724 151.7103 177.0842   H        778 ligands_prepared   0.0000
  42 H42    221.1733 153.3918 175.1613   H        778 ligands_prepared   0.0000
  43 H43    220.0365 154.5387 175.8618   H        778 ligands_prepared   0.0000
  44 H44    220.3281 151.6578 173.6903   H        778 ligands_prepared   0.0000
  45 H45    218.3554 150.6691 172.5158   H        778 ligands_prepared   0.0000
  46 H46    216.0359 151.2210 173.3553   H        778 ligands_prepared   0.0000
  47 H47    217.5562 153.6790 176.3431   H        778 ligands_prepared   0.0000
  48 H48    223.6928 154.4530 175.3118   H        778 ligands_prepared   0.0000
  49 H49    224.7965 157.2487 175.4203   H        778 ligands_prepared   0.0000
  50 H50    227.5052 157.7436 178.7934   H        778 ligands_prepared   0.0000
  51 H51    227.1047 155.3859 179.5152   H        778 ligands_prepared   0.0000
@<TRIPOS>BOND
   1  1  2    2
   2  2  3   am
   3  2 19    1
   4  3  4    1
   5  3 29    1
   6  4  5    1
   7  4 11    1
   8  4 30    1
   9  5  6    1
  10  5 10    1
  11  5 31    1
  12  6  7    1
  13  6 32    1
  14  6 33    1
  15  7  8    1
  16  7 34    1
  17  7 35    1
  18  8  9    1
  19  8 11    1
  20  8 36    1
  21  9 10    1
  22  9 37    1
  23  9 38    1
  24 10 39    1
  25 10 40    1
  26 11 12    1
  27 11 41    1
  28 12 13    1
  29 12 42    1
  30 12 43    1
  31 13 14   ar
  32 13 18   ar
  33 14 15   ar
  34 14 44    1
  35 15 16   ar
  36 15 45    1
  37 16 17   ar
  38 16 46    1
  39 17 18   ar
  40 18 47    1
  41 19 20    2
  42 19 28    1
  43 20 21    1
  44 20 48    1
  45 21 22   ar
  46 21 27   ar
  47 22 23   ar
  48 22 49    1
  49 23 24    1
  50 23 25   ar
  51 25 26   ar
  52 25 50    1
  53 26 27   ar
  54 26 51    1
  55 27 28    1
