@<TRIPOS>MOLECULE
CHEMBL112640_LIG
52 55 1 0 0
SMALL
USER_CHARGES

@<TRIPOS>ATOM
   1 C1     224.0726 160.3044 173.3307   C.3      778 ligands_prepared   0.0000
   2 O2     225.1066 161.1655 173.7963   O.3      778 ligands_prepared   0.0000
   3 C3     225.8749 160.6997 174.8219   C.ar     778 ligands_prepared   0.0000
   4 C4     225.7067 159.4864 175.4763   C.ar     778 ligands_prepared   0.0000
   5 C5     226.5439 159.1572 176.5474   C.ar     778 ligands_prepared   0.0000
   6 C6     227.4998 160.0836 176.9979   C.ar     778 ligands_prepared   0.0000
   7 C7     227.6916 161.2909 176.3295   C.ar     778 ligands_prepared   0.0000
   8 C8     226.8866 161.5904 175.2350   C.ar     778 ligands_prepared   0.0000
   9 O9     227.1183 162.7763 174.6222   O.3      778 ligands_prepared   0.0000
  10 C10    228.2778 159.7852 178.2458   C.3      778 ligands_prepared   0.0000
  11 C11    227.2971 159.0780 179.2047   C.3      778 ligands_prepared   0.0000
  12 C12    226.9287 157.7678 178.5562   C.ar     778 ligands_prepared   0.0000
  13 C13    227.0549 156.5316 179.1754   C.ar     778 ligands_prepared   0.0000
  14 C14    226.6246 155.3654 178.5319   C.ar     778 ligands_prepared   0.0000
  15 C15    226.1243 155.4477 177.2407   C.ar     778 ligands_prepared   0.0000
  16 O16    225.6843 154.4083 176.4946   O.3      778 ligands_prepared   0.0000
  17 C17    225.6518 153.1307 177.1238   C.3      778 ligands_prepared   0.0000
  18 C18    226.0727 156.6961 176.5734   C.ar     778 ligands_prepared   0.0000
  19 O19    225.5507 156.7509 175.3097   O.3      778 ligands_prepared   0.0000
  20 C20    226.5577 156.8057 174.2968   C.3      778 ligands_prepared   0.0000
  21 C21    226.4763 157.8592 177.2203   C.ar     778 ligands_prepared   0.0000
  22 C22    227.6926 156.4184 180.5183   C.3      778 ligands_prepared   0.0000
  23 C23    227.3806 157.5841 181.2186   C.3      778 ligands_prepared   0.0000
  24 N24    227.7967 158.9195 180.6405   N.4      778 ligands_prepared   1.0000
  25 C25    229.3023 158.9891 180.6704   C.3      778 ligands_prepared   0.0000
  26 C26    227.2733 160.0670 181.4546   C.3      778 ligands_prepared   0.0000
  27 H27    223.6990 160.8472 172.4494   H        778 ligands_prepared   0.0000
  28 H28    224.4679 159.3251 173.0429   H        778 ligands_prepared   0.0000
  29 H29    223.2824 160.2060 174.0839   H        778 ligands_prepared   0.0000
  30 H30    224.9222 158.7930 175.1627   H        778 ligands_prepared   0.0000
  31 H31    228.4516 162.0021 176.6557   H        778 ligands_prepared   0.0000
  32 H32    227.9029 162.7260 174.0037   H        778 ligands_prepared   0.0000
  33 H33    229.1609 159.1462 178.0220   H        778 ligands_prepared   0.0000
  34 H34    228.6939 160.7205 178.6759   H        778 ligands_prepared   0.0000
  35 H35    226.3625 159.7219 179.2732   H        778 ligands_prepared   0.0000
  36 H36    226.7018 154.4081 179.0482   H        778 ligands_prepared   0.0000
  37 H37    226.6573 152.8034 177.4102   H        778 ligands_prepared   0.0000
  38 H38    225.2533 152.4899 176.3233   H        778 ligands_prepared   0.0000
  39 H39    224.9791 153.1321 177.9879   H        778 ligands_prepared   0.0000
  40 H40    225.9655 156.8623 173.3732   H        778 ligands_prepared   0.0000
  41 H41    227.1777 157.6997 174.4176   H        778 ligands_prepared   0.0000
  42 H42    227.1724 155.9007 174.3127   H        778 ligands_prepared   0.0000
  43 H43    228.7913 156.2327 180.4263   H        778 ligands_prepared   0.0000
  44 H44    227.3235 155.5139 181.0556   H        778 ligands_prepared   0.0000
  45 H45    227.8337 157.4751 182.2335   H        778 ligands_prepared   0.0000
  46 H46    226.2740 157.5743 181.3685   H        778 ligands_prepared   0.0000
  47 H47    229.7603 158.0884 180.2213   H        778 ligands_prepared   0.0000
  48 H48    229.6716 159.8706 180.1155   H        778 ligands_prepared   0.0000
  49 H49    229.6751 159.0715 181.7094   H        778 ligands_prepared   0.0000
  50 H50    226.1761 160.1729 181.3601   H        778 ligands_prepared   0.0000
  51 H51    227.7176 161.0244 181.1177   H        778 ligands_prepared   0.0000
  52 H52    227.5263 159.9512 182.5256   H        778 ligands_prepared   0.0000
@<TRIPOS>BOND
   1  1  2    1
   2  1 27    1
   3  1 28    1
   4  1 29    1
   5  2  3    1
   6  3  4   ar
   7  3  8   ar
   8  4  5   ar
   9  4 30    1
  10  5  6   ar
  11  5 21    1
  12  6  7   ar
  13  6 10    1
  14  7  8   ar
  15  7 31    1
  16  8  9    1
  17  9 32    1
  18 10 11    1
  19 10 33    1
  20 10 34    1
  21 11 12    1
  22 11 24    1
  23 11 35    1
  24 12 13   ar
  25 12 21   ar
  26 13 14   ar
  27 13 22    1
  28 14 15   ar
  29 14 36    1
  30 15 16    1
  31 15 18   ar
  32 16 17    1
  33 17 37    1
  34 17 38    1
  35 17 39    1
  36 18 19    1
  37 18 21   ar
  38 19 20    1
  39 20 40    1
  40 20 41    1
  41 20 42    1
  42 22 23    1
  43 22 43    1
  44 22 44    1
  45 23 24    1
  46 23 45    1
  47 23 46    1
  48 24 25    1
  49 24 26    1
  50 25 47    1
  51 25 48    1
  52 25 49    1
  53 26 50    1
  54 26 51    1
  55 26 52    1
