@<TRIPOS>MOLECULE
CHEMBL1258005_LIG
48 51 1 0 0
SMALL
USER_CHARGES

@<TRIPOS>ATOM
   1 O1     226.0300 161.9380 172.9373   O.2      778 ligands_prepared   0.0000
   2 C2     225.0741 161.1798 172.9859   C.2      778 ligands_prepared   0.0000
   3 N3     225.1301 160.0075 173.6850   N.am     778 ligands_prepared   0.0000
   4 C4     226.3435 159.6130 174.3981   C.3      778 ligands_prepared   0.0000
   5 C5     227.5799 159.7209 173.4711   C.3      778 ligands_prepared   0.0000
   6 C6     228.8208 159.4201 174.3212   C.3      778 ligands_prepared   0.0000
   7 C7     228.7050 158.0075 174.9113   C.3      778 ligands_prepared   0.0000
   8 N8     227.4258 157.3385 174.4424   N.4      778 ligands_prepared   1.0000
   9 C9     227.4318 157.2724 172.9248   C.3      778 ligands_prepared   0.0000
  10 C10    227.5005 158.6907 172.3365   C.3      778 ligands_prepared   0.0000
  11 C11    226.1966 158.1299 174.8786   C.3      778 ligands_prepared   0.0000
  12 C12    226.0003 158.0391 176.3944   C.3      778 ligands_prepared   0.0000
  13 C13    225.7937 156.6261 176.8261   C.ar     778 ligands_prepared   0.0000
  14 C14    226.5728 156.0502 177.8322   C.ar     778 ligands_prepared   0.0000
  15 C15    226.3410 154.7258 178.1986   C.ar     778 ligands_prepared   0.0000
  16 C16    225.3308 154.0136 177.5460   C.ar     778 ligands_prepared   0.0000
  17 N17    224.5685 154.5651 176.5776   N.ar     778 ligands_prepared   0.0000
  18 C18    224.7957 155.8444 176.2263   C.ar     778 ligands_prepared   0.0000
  19 C19    223.7786 161.4534 172.3004   C.ar     778 ligands_prepared   0.0000
  20 C20    222.6017 160.9457 172.8560   C.ar     778 ligands_prepared   0.0000
  21 C21    221.3840 161.2017 172.2331   C.ar     778 ligands_prepared   0.0000
  22 C22    221.3807 161.9613 171.0643   C.ar     778 ligands_prepared   0.0000
  23 Br23   219.7119 162.3165 170.2251   Br       778 ligands_prepared   0.0000
  24 C24    222.5453 162.4601 170.4911   C.ar     778 ligands_prepared   0.0000
  25 C25    223.7610 162.2018 171.1221   C.ar     778 ligands_prepared   0.0000
  26 H26    224.3302 159.3738 173.7416   H        778 ligands_prepared   0.0000
  27 H27    226.4869 160.2912 175.2882   H        778 ligands_prepared   0.0000
  28 H28    227.6415 160.7529 173.0471   H        778 ligands_prepared   0.0000
  29 H29    229.7373 159.5090 173.7013   H        778 ligands_prepared   0.0000
  30 H30    228.9468 160.1738 175.1255   H        778 ligands_prepared   0.0000
  31 H31    229.5662 157.3659 174.6018   H        778 ligands_prepared   0.0000
  32 H32    228.7237 158.0261 176.0243   H        778 ligands_prepared   0.0000
  33 H33    227.3695 156.3671 174.8428   H        778 ligands_prepared   0.0000
  34 H34    228.3007 156.6524 172.6015   H        778 ligands_prepared   0.0000
  35 H35    226.5194 156.7301 172.5828   H        778 ligands_prepared   0.0000
  36 H36    226.6367 158.8837 171.6700   H        778 ligands_prepared   0.0000
  37 H37    228.3862 158.7912 171.6739   H        778 ligands_prepared   0.0000
  38 H38    225.3093 157.6593 174.3666   H        778 ligands_prepared   0.0000
  39 H39    226.8389 158.5190 176.9493   H        778 ligands_prepared   0.0000
  40 H40    225.1181 158.6703 176.6828   H        778 ligands_prepared   0.0000
  41 H41    227.3526 156.6293 178.3339   H        778 ligands_prepared   0.0000
  42 H42    226.9344 154.2529 178.9829   H        778 ligands_prepared   0.0000
  43 H43    225.1095 152.9655 177.7981   H        778 ligands_prepared   0.0000
  44 H44    224.1483 156.2517 175.4356   H        778 ligands_prepared   0.0000
  45 H45    222.6310 160.3497 173.7756   H        778 ligands_prepared   0.0000
  46 H46    220.4611 160.8066 172.6697   H        778 ligands_prepared   0.0000
  47 H47    222.5325 163.0473 169.5663   H        778 ligands_prepared   0.0000
  48 H48    224.6912 162.5862 170.6893   H        778 ligands_prepared   0.0000
@<TRIPOS>BOND
   1  1  2    2
   2  2  3   am
   3  2 19    1
   4  3  4    1
   5  3 26    1
   6  4  5    1
   7  4 11    1
   8  4 27    1
   9  5  6    1
  10  5 10    1
  11  5 28    1
  12  6  7    1
  13  6 29    1
  14  6 30    1
  15  7  8    1
  16  7 31    1
  17  7 32    1
  18  8  9    1
  19  8 11    1
  20  8 33    1
  21  9 10    1
  22  9 34    1
  23  9 35    1
  24 10 36    1
  25 10 37    1
  26 11 12    1
  27 11 38    1
  28 12 13    1
  29 12 39    1
  30 12 40    1
  31 13 14   ar
  32 13 18   ar
  33 14 15   ar
  34 14 41    1
  35 15 16   ar
  36 15 42    1
  37 16 17   ar
  38 16 43    1
  39 17 18   ar
  40 18 44    1
  41 19 20   ar
  42 19 25   ar
  43 20 21   ar
  44 20 45    1
  45 21 22   ar
  46 21 46    1
  47 22 23    1
  48 22 24   ar
  49 24 25   ar
  50 24 47    1
  51 25 48    1
