@<TRIPOS>MOLECULE
CHEMBL3329527_LIG
30 32 1 0 0
SMALL
USER_CHARGES

@<TRIPOS>ATOM
   1 O1     220.7746 152.2004 176.5933   O.2      778 ligands_prepared   0.0000
   2 C2     219.7638 152.8968 176.5729   C.2      778 ligands_prepared   0.0000
   3 C3     219.3394 153.7094 177.7471   C.3      778 ligands_prepared   0.0000
   4 C4     218.8563 153.0108 179.0028   C.3      778 ligands_prepared   0.0000
   5 C5     220.1945 153.6948 179.0000   C.3      778 ligands_prepared   0.0000
   6 N6     219.0436 152.9707 175.4009   N.am     778 ligands_prepared   0.0000
   7 C7     217.7194 153.6052 175.3630   C.3      778 ligands_prepared   0.0000
   8 C8     216.6266 152.6626 174.8181   C.3      778 ligands_prepared   0.0000
   9 C9     216.4133 152.7918 173.2987   C.3      778 ligands_prepared   0.0000
  10 C10    217.4403 151.8275 172.6616   C.3      778 ligands_prepared   0.0000
  11 C11    218.1861 151.1921 173.8487   C.3      778 ligands_prepared   0.0000
  12 C12    219.3925 152.0202 174.3261   C.3      778 ligands_prepared   0.0000
  13 N13    217.1407 151.2306 174.9629   N.4      778 ligands_prepared   1.0000
  14 H14    218.8677 154.6608 177.4490   H        778 ligands_prepared   0.0000
  15 H15    218.0173 153.4339 179.5552   H        778 ligands_prepared   0.0000
  16 H16    218.8028 151.9227 179.0341   H        778 ligands_prepared   0.0000
  17 H17    221.1079 153.1002 179.0272   H        778 ligands_prepared   0.0000
  18 H18    220.3331 154.6232 179.5546   H        778 ligands_prepared   0.0000
  19 H19    217.7563 154.5182 174.7156   H        778 ligands_prepared   0.0000
  20 H20    217.4408 153.9575 176.3879   H        778 ligands_prepared   0.0000
  21 H21    215.6813 152.7942 175.4022   H        778 ligands_prepared   0.0000
  22 H22    216.5469 153.8304 172.9507   H        778 ligands_prepared   0.0000
  23 H23    215.3792 152.5134 173.0176   H        778 ligands_prepared   0.0000
  24 H24    218.1296 152.3506 171.9753   H        778 ligands_prepared   0.0000
  25 H25    216.9351 151.0554 172.0496   H        778 ligands_prepared   0.0000
  26 H26    218.4980 150.1346 173.6499   H        778 ligands_prepared   0.0000
  27 H27    220.2110 151.3424 174.6780   H        778 ligands_prepared   0.0000
  28 H28    219.8160 152.5881 173.4565   H        778 ligands_prepared   0.0000
  29 H29    216.3798 150.5361 174.7920   H        778 ligands_prepared   0.0000
  30 H30    217.5334 151.0298 175.9018   H        778 ligands_prepared   0.0000
@<TRIPOS>BOND
   1  1  2    2
   2  2  3    1
   3  2  6   am
   4  3  4    1
   5  3  5    1
   6  3 14    1
   7  4  5    1
   8  4 15    1
   9  4 16    1
  10  5 17    1
  11  5 18    1
  12  7  6    1
  13  6 12    1
  14  7  8    1
  15  7 19    1
  16  7 20    1
  17  8  9    1
  18  8 13    1
  19  8 21    1
  20  9 10    1
  21  9 22    1
  22  9 23    1
  23 10 11    1
  24 10 24    1
  25 10 25    1
  26 11 12    1
  27 11 13    1
  28 11 26    1
  29 12 27    1
  30 12 28    1
  31 13 29    1
  32 13 30    1
