@<TRIPOS>MOLECULE
CHEMBL3329531_LIG
29 30 1 0 0
SMALL
USER_CHARGES

@<TRIPOS>ATOM
   1 C1     219.5512 153.6969 180.1996   C.3      778 ligands_prepared   0.0000
   2 C2     220.1520 153.6763 178.7953   C.3      778 ligands_prepared   0.0000
   3 C3     219.0467 153.4755 177.7506   C.3      778 ligands_prepared   0.0000
   4 C4     219.5729 152.7788 176.5275   C.2      778 ligands_prepared   0.0000
   5 O5     220.7505 152.4655 176.3915   O.2      778 ligands_prepared   0.0000
   6 N6     218.7094 152.4970 175.4916   N.am     778 ligands_prepared   0.0000
   7 C7     217.3091 152.9707 175.5868   C.3      778 ligands_prepared   0.0000
   8 C8     216.4312 152.2858 174.5270   C.3      778 ligands_prepared   0.0000
   9 C9     216.9987 152.5910 173.1104   C.3      778 ligands_prepared   0.0000
  10 C10    217.9908 151.4218 173.3759   C.3      778 ligands_prepared   0.0000
  11 C11    219.1775 151.9362 174.2079   C.3      778 ligands_prepared   0.0000
  12 N12    216.9473 150.8313 174.3600   N.4      778 ligands_prepared   1.0000
  13 H13    220.3239 153.8374 180.9658   H        778 ligands_prepared   0.0000
  14 H14    219.0285 152.7586 180.4277   H        778 ligands_prepared   0.0000
  15 H15    218.8223 154.5087 180.3149   H        778 ligands_prepared   0.0000
  16 H16    220.7010 154.6184 178.5947   H        778 ligands_prepared   0.0000
  17 H17    220.9083 152.8705 178.7089   H        778 ligands_prepared   0.0000
  18 H18    218.6053 154.4588 177.4752   H        778 ligands_prepared   0.0000
  19 H19    218.2100 152.8945 178.1986   H        778 ligands_prepared   0.0000
  20 H20    217.2655 154.0789 175.4466   H        778 ligands_prepared   0.0000
  21 H21    216.9232 152.7702 176.6176   H        778 ligands_prepared   0.0000
  22 H22    215.3469 152.3763 174.6999   H        778 ligands_prepared   0.0000
  23 H23    216.2925 152.4132 172.2848   H        778 ligands_prepared   0.0000
  24 H24    217.4307 153.5839 172.9485   H        778 ligands_prepared   0.0000
  25 H25    218.2741 150.7576 172.5442   H        778 ligands_prepared   0.0000
  26 H26    219.9003 151.1054 174.4034   H        778 ligands_prepared   0.0000
  27 H27    219.7298 152.7123 173.6207   H        778 ligands_prepared   0.0000
  28 H28    217.3202 150.3798 175.2045   H        778 ligands_prepared   0.0000
  29 H29    216.2673 150.1944 173.9145   H        778 ligands_prepared   0.0000
@<TRIPOS>BOND
   1  1  2    1
   2  1 13    1
   3  1 14    1
   4  1 15    1
   5  2  3    1
   6  2 16    1
   7  2 17    1
   8  3  4    1
   9  3 18    1
  10  3 19    1
  11  4  5    2
  12  4  6   am
  13  7  6    1
  14  6 11    1
  15  7  8    1
  16  7 20    1
  17  7 21    1
  18  8  9    1
  19  8 12    1
  20  8 22    1
  21  9 10    1
  22  9 23    1
  23  9 24    1
  24 10 11    1
  25 10 12    1
  26 10 25    1
  27 11 26    1
  28 11 27    1
  29 12 28    1
  30 12 29    1
