@<TRIPOS>MOLECULE
CHEMBL2180257_LIG
57 61 1 0 0
SMALL
USER_CHARGES

@<TRIPOS>ATOM
   1 C1     215.7962 152.2067 173.6004   C.3      778 ligands_prepared   0.0000
   2 C2     217.2002 152.3081 174.0851   C.ar     778 ligands_prepared   0.0000
   3 C3     218.2504 152.0415 173.1783   C.ar     778 ligands_prepared   0.0000
   4 C4     219.5830 152.1215 173.5552   C.ar     778 ligands_prepared   0.0000
   5 C5     219.8190 152.4837 174.8758   C.ar     778 ligands_prepared   0.0000
   6 O6     221.0622 152.6307 175.4506   O.3      778 ligands_prepared   0.0000
   7 C7     220.8089 153.0241 176.7714   C.2      778 ligands_prepared   0.0000
   8 C8     222.0417 153.2398 177.5332   C.2      778 ligands_prepared   0.0000
   9 O9     222.0509 153.3764 178.7496   O.2      778 ligands_prepared   0.0000
  10 N10    223.2017 153.2742 176.8022   N.am     778 ligands_prepared   0.0000
  11 C11    224.5001 153.4427 177.4485   C.3      778 ligands_prepared   0.0000
  12 C12    225.0155 154.8973 177.2969   C.3      778 ligands_prepared   0.0000
  13 C13    225.2531 155.2428 175.8216   C.3      778 ligands_prepared   0.0000
  14 C14    226.2307 154.2329 175.2029   C.3      778 ligands_prepared   0.0000
  15 N15    226.7206 153.2652 176.2660   N.4      778 ligands_prepared   1.0000
  16 C16    227.3746 154.0528 177.3849   C.3      778 ligands_prepared   0.0000
  17 C17    226.3520 154.9874 178.0471   C.3      778 ligands_prepared   0.0000
  18 C18    225.5261 152.4674 176.7805   C.3      778 ligands_prepared   0.0000
  19 C19    225.9759 151.3807 177.7607   C.3      778 ligands_prepared   0.0000
  20 C20    227.2466 150.7302 177.3271   C.ar     778 ligands_prepared   0.0000
  21 C21    228.4876 151.2798 177.6510   C.ar     778 ligands_prepared   0.0000
  22 C22    229.6493 150.6367 177.2305   C.ar     778 ligands_prepared   0.0000
  23 C23    229.5331 149.4503 176.4977   C.ar     778 ligands_prepared   0.0000
  24 N24    228.3376 148.9057 176.1908   N.ar     778 ligands_prepared   0.0000
  25 C25    227.2177 149.5305 176.5980   C.ar     778 ligands_prepared   0.0000
  26 C26    219.4684 153.1092 177.0430   C.2      778 ligands_prepared   0.0000
  27 C27    218.8078 153.4700 178.3007   C.3      778 ligands_prepared   0.0000
  28 C28    218.7923 152.7588 175.8085   C.ar     778 ligands_prepared   0.0000
  29 C29    217.4620 152.6661 175.4037   C.ar     778 ligands_prepared   0.0000
  30 H30    215.0547 152.4479 174.3754   H        778 ligands_prepared   0.0000
  31 H31    215.5629 151.1904 173.2423   H        778 ligands_prepared   0.0000
  32 H32    215.6092 152.8920 172.7578   H        778 ligands_prepared   0.0000
  33 H33    217.9989 151.7656 172.1504   H        778 ligands_prepared   0.0000
  34 H34    220.3970 151.9197 172.8611   H        778 ligands_prepared   0.0000
  35 H35    223.1983 153.1509 175.7930   H        778 ligands_prepared   0.0000
  36 H36    224.4019 153.2038 178.5468   H        778 ligands_prepared   0.0000
  37 H37    224.2745 155.6045 177.7403   H        778 ligands_prepared   0.0000
  38 H38    224.3046 155.2746 175.2526   H        778 ligands_prepared   0.0000
  39 H39    225.6560 156.2742 175.7351   H        778 ligands_prepared   0.0000
  40 H40    225.7600 153.6546 174.3755   H        778 ligands_prepared   0.0000
  41 H41    227.1147 154.7430 174.7533   H        778 ligands_prepared   0.0000
  42 H42    227.4198 152.5977 175.8488   H        778 ligands_prepared   0.0000
  43 H43    227.8220 153.3467 178.1199   H        778 ligands_prepared   0.0000
  44 H44    228.2308 154.6263 176.9575   H        778 ligands_prepared   0.0000
  45 H45    226.7243 156.0329 178.0458   H        778 ligands_prepared   0.0000
  46 H46    226.2242 154.7370 179.1205   H        778 ligands_prepared   0.0000
  47 H47    225.0566 151.9761 175.8794   H        778 ligands_prepared   0.0000
  48 H48    225.1634 150.6134 177.8438   H        778 ligands_prepared   0.0000
  49 H49    226.0573 151.7802 178.7985   H        778 ligands_prepared   0.0000
  50 H50    228.5543 152.2007 178.2368   H        778 ligands_prepared   0.0000
  51 H51    230.6307 151.0483 177.4686   H        778 ligands_prepared   0.0000
  52 H52    230.4180 148.9039 176.1423   H        778 ligands_prepared   0.0000
  53 H53    226.2669 149.0451 176.3317   H        778 ligands_prepared   0.0000
  54 H54    219.3111 153.0560 179.1897   H        778 ligands_prepared   0.0000
  55 H55    218.7539 154.5662 178.4413   H        778 ligands_prepared   0.0000
  56 H56    217.7628 153.1137 178.3450   H        778 ligands_prepared   0.0000
  57 H57    216.6567 152.8726 176.1076   H        778 ligands_prepared   0.0000
@<TRIPOS>BOND
   1  1  2    1
   2  1 30    1
   3  1 31    1
   4  1 32    1
   5  2  3   ar
   6  2 29   ar
   7  3  4   ar
   8  3 33    1
   9  4  5   ar
  10  4 34    1
  11  5  6    1
  12  5 28   ar
  13  6  7    1
  14  7  8    1
  15  7 26    2
  16  8  9    2
  17  8 10   am
  18 10 11    1
  19 10 35    1
  20 11 12    1
  21 11 18    1
  22 11 36    1
  23 12 13    1
  24 12 17    1
  25 12 37    1
  26 13 14    1
  27 13 38    1
  28 13 39    1
  29 14 15    1
  30 14 40    1
  31 14 41    1
  32 15 16    1
  33 15 18    1
  34 15 42    1
  35 16 17    1
  36 16 43    1
  37 16 44    1
  38 17 45    1
  39 17 46    1
  40 18 19    1
  41 18 47    1
  42 19 20    1
  43 19 48    1
  44 19 49    1
  45 20 21   ar
  46 20 25   ar
  47 21 22   ar
  48 21 50    1
  49 22 23   ar
  50 22 51    1
  51 23 24   ar
  52 23 52    1
  53 24 25   ar
  54 25 53    1
  55 26 27    1
  56 26 28    1
  57 27 54    1
  58 27 55    1
  59 27 56    1
  60 28 29   ar
  61 29 57    1
