@<TRIPOS>MOLECULE
CHEMBL2409475_LIG
32 33 1 0 0
SMALL
USER_CHARGES

@<TRIPOS>ATOM
   1 C1     221.3989 152.2177 178.4151   C.3      778 ligands_prepared   0.0000
   2 N2     220.6100 152.0234 177.1963   N.am     778 ligands_prepared   0.0000
   3 C3     219.4060 152.6432 177.0411   C.2      778 ligands_prepared   0.0000
   4 O4     218.9818 153.4019 177.9087   O.2      778 ligands_prepared   0.0000
   5 C5     218.6403 152.3653 175.7556   C.3      778 ligands_prepared   0.0000
   6 C6     217.4508 153.3341 175.6570   C.3      778 ligands_prepared   0.0000
   7 C7     216.7603 153.2701 174.2852   C.3      778 ligands_prepared   0.0000
   8 C8     216.0930 151.8969 174.0628   C.3      778 ligands_prepared   0.0000
   9 N9     216.6950 151.1450 172.8981   N.4      778 ligands_prepared   1.0000
  10 C10    218.2025 151.0728 172.9786   C.3      778 ligands_prepared   0.0000
  11 C11    218.8500 152.4533 173.2135   C.3      778 ligands_prepared   0.0000
  12 C12    217.7913 153.5598 173.1896   C.3      778 ligands_prepared   0.0000
  13 C13    219.5945 152.4995 174.5591   C.3      778 ligands_prepared   0.0000
  14 H14    221.3635 153.2716 178.7507   H        778 ligands_prepared   0.0000
  15 H15    221.0211 151.5868 179.2411   H        778 ligands_prepared   0.0000
  16 H16    222.4538 151.9489 178.2268   H        778 ligands_prepared   0.0000
  17 H17    220.9819 151.3850 176.5023   H        778 ligands_prepared   0.0000
  18 H18    218.2565 151.3106 175.7901   H        778 ligands_prepared   0.0000
  19 H19    216.7103 153.1211 176.4542   H        778 ligands_prepared   0.0000
  20 H20    217.7945 154.3749 175.8394   H        778 ligands_prepared   0.0000
  21 H21    215.9637 154.0570 174.2585   H        778 ligands_prepared   0.0000
  22 H22    216.1582 151.2586 174.9738   H        778 ligands_prepared   0.0000
  23 H23    215.0021 152.0211 173.8581   H        778 ligands_prepared   0.0000
  24 H24    216.2989 150.1767 172.8633   H        778 ligands_prepared   0.0000
  25 H25    216.4150 151.6068 172.0046   H        778 ligands_prepared   0.0000
  26 H26    218.5680 150.6285 172.0212   H        778 ligands_prepared   0.0000
  27 H27    218.4844 150.3500 173.7787   H        778 ligands_prepared   0.0000
  28 H28    219.5933 152.6383 172.3959   H        778 ligands_prepared   0.0000
  29 H29    217.3159 153.6512 172.1951   H        778 ligands_prepared   0.0000
  30 H30    218.2651 154.5484 173.3634   H        778 ligands_prepared   0.0000
  31 H31    220.3632 151.7010 174.6001   H        778 ligands_prepared   0.0000
  32 H32    220.1584 153.4538 174.6314   H        778 ligands_prepared   0.0000
@<TRIPOS>BOND
   1  1  2    1
   2  1 14    1
   3  1 15    1
   4  1 16    1
   5  2  3   am
   6  2 17    1
   7  3  4    2
   8  3  5    1
   9  6  5    1
  10  5 13    1
  11  5 18    1
  12  6  7    1
  13  6 19    1
  14  6 20    1
  15  7  8    1
  16  7 12    1
  17  7 21    1
  18  8  9    1
  19  8 22    1
  20  8 23    1
  21  9 10    1
  22  9 24    1
  23  9 25    1
  24 10 11    1
  25 10 26    1
  26 10 27    1
  27 11 12    1
  28 11 13    1
  29 11 28    1
  30 12 29    1
  31 12 30    1
  32 13 31    1
  33 13 32    1
