@<TRIPOS>MOLECULE
CHEMBL2179850_LIG
52 55 1 0 0
SMALL
USER_CHARGES

@<TRIPOS>ATOM
   1 C1     227.3768 164.7957 182.5352   C.3      778 ligands_prepared   0.0000
   2 O2     227.3967 163.3960 182.8179   O.3      778 ligands_prepared   0.0000
   3 C3     227.7265 162.5557 181.8234   C.ar     778 ligands_prepared   0.0000
   4 C4     228.4184 162.9106 180.6584   C.ar     778 ligands_prepared   0.0000
   5 C5     228.6882 161.9049 179.7393   C.ar     778 ligands_prepared   0.0000
   6 F6     229.3426 162.2076 178.6339   F        778 ligands_prepared   0.0000
   7 C7     228.3024 160.5744 179.9238   C.ar     778 ligands_prepared   0.0000
   8 C8     228.6122 159.5439 178.9092   C.2      778 ligands_prepared   0.0000
   9 O9     229.7542 159.2363 178.6036   O.2      778 ligands_prepared   0.0000
  10 N10    227.5268 158.9453 178.3282   N.am     778 ligands_prepared   0.0000
  11 C11    227.6887 157.9055 177.3168   C.3      778 ligands_prepared   0.0000
  12 C12    227.7982 158.5287 175.8979   C.3      778 ligands_prepared   0.0000
  13 C13    228.2480 157.4067 174.9530   C.3      778 ligands_prepared   0.0000
  14 C14    227.2589 156.2362 175.0608   C.3      778 ligands_prepared   0.0000
  15 N15    226.0602 156.6244 175.9050   N.4      778 ligands_prepared   1.0000
  16 C16    225.4471 157.8754 175.2934   C.3      778 ligands_prepared   0.0000
  17 C17    226.4314 159.0482 175.4292   C.3      778 ligands_prepared   0.0000
  18 C18    226.4437 156.9647 177.3427   C.3      778 ligands_prepared   0.0000
  19 C19    226.5891 155.7217 178.2246   C.3      778 ligands_prepared   0.0000
  20 C20    225.9143 154.4807 177.7530   C.ar     778 ligands_prepared   0.0000
  21 C21    224.5386 154.4575 177.5066   C.ar     778 ligands_prepared   0.0000
  22 C22    223.9438 153.2811 177.0624   C.ar     778 ligands_prepared   0.0000
  23 C23    224.7442 152.1454 176.8942   C.ar     778 ligands_prepared   0.0000
  24 N24    226.0643 152.1463 177.1653   N.ar     778 ligands_prepared   0.0000
  25 C25    226.6358 153.2881 177.5933   C.ar     778 ligands_prepared   0.0000
  26 C26    227.6000 160.2804 181.0999   C.ar     778 ligands_prepared   0.0000
  27 F27    227.2109 159.0331 181.2925   F        778 ligands_prepared   0.0000
  28 C28    227.2937 161.2335 182.0554   C.ar     778 ligands_prepared   0.0000
  29 H29    226.6188 165.0330 181.7816   H        778 ligands_prepared   0.0000
  30 H30    228.3693 165.1474 182.2332   H        778 ligands_prepared   0.0000
  31 H31    227.1004 165.2235 183.5115   H        778 ligands_prepared   0.0000
  32 H32    228.7442 163.9377 180.4803   H        778 ligands_prepared   0.0000
  33 H33    226.5742 159.1869 178.6011   H        778 ligands_prepared   0.0000
  34 H34    228.6273 157.3231 177.5302   H        778 ligands_prepared   0.0000
  35 H35    228.5450 159.3563 175.9029   H        778 ligands_prepared   0.0000
  36 H36    228.2998 157.7816 173.9088   H        778 ligands_prepared   0.0000
  37 H37    229.2785 157.0730 175.1854   H        778 ligands_prepared   0.0000
  38 H38    226.8913 155.9252 174.0534   H        778 ligands_prepared   0.0000
  39 H39    227.7465 155.3380 175.4916   H        778 ligands_prepared   0.0000
  40 H40    225.3588 155.8403 175.9033   H        778 ligands_prepared   0.0000
  41 H41    225.2006 157.6657 174.2272   H        778 ligands_prepared   0.0000
  42 H42    224.4768 158.0881 175.7967   H        778 ligands_prepared   0.0000
  43 H43    226.5343 159.5738 174.4565   H        778 ligands_prepared   0.0000
  44 H44    226.0365 159.8175 176.1207   H        778 ligands_prepared   0.0000
  45 H45    225.5645 157.5489 177.7659   H        778 ligands_prepared   0.0000
  46 H46    227.6875 155.5294 178.3514   H        778 ligands_prepared   0.0000
  47 H47    226.2602 155.9708 179.2648   H        778 ligands_prepared   0.0000
  48 H48    223.9317 155.3550 177.6612   H        778 ligands_prepared   0.0000
  49 H49    222.8747 153.2417 176.8498   H        778 ligands_prepared   0.0000
  50 H50    224.3235 151.1936 176.5395   H        778 ligands_prepared   0.0000
  51 H51    227.7118 153.2328 177.8218   H        778 ligands_prepared   0.0000
  52 H52    226.7473 160.9886 182.9689   H        778 ligands_prepared   0.0000
@<TRIPOS>BOND
   1  1  2    1
   2  1 29    1
   3  1 30    1
   4  1 31    1
   5  2  3    1
   6  3  4   ar
   7  3 28   ar
   8  4  5   ar
   9  4 32    1
  10  5  6    1
  11  5  7   ar
  12  7  8    1
  13  7 26   ar
  14  8  9    2
  15  8 10   am
  16 10 11    1
  17 10 33    1
  18 11 12    1
  19 11 18    1
  20 11 34    1
  21 12 13    1
  22 12 17    1
  23 12 35    1
  24 13 14    1
  25 13 36    1
  26 13 37    1
  27 14 15    1
  28 14 38    1
  29 14 39    1
  30 15 16    1
  31 15 18    1
  32 15 40    1
  33 16 17    1
  34 16 41    1
  35 16 42    1
  36 17 43    1
  37 17 44    1
  38 18 19    1
  39 18 45    1
  40 19 20    1
  41 19 46    1
  42 19 47    1
  43 20 21   ar
  44 20 25   ar
  45 21 22   ar
  46 21 48    1
  47 22 23   ar
  48 22 49    1
  49 23 24   ar
  50 23 50    1
  51 24 25   ar
  52 25 51    1
  53 26 27    1
  54 26 28   ar
  55 28 52    1
