@<TRIPOS>MOLECULE
CHEMBL2381569_nacw_LIG
36 37 1 0 0
SMALL
USER_CHARGES

@<TRIPOS>ATOM
   1 C1     219.3521 153.1025 176.2302   C.3      778 ligands_prepared   0.0000
   2 N2     219.6161 152.7187 177.6503   N.4      778 ligands_prepared   1.0000
   3 C3     218.4991 153.0988 178.6180   C.3      778 ligands_prepared   0.0000
   4 C4     219.1675 153.5480 179.8658   C.3      778 ligands_prepared   0.0000
   5 C5     220.8898 153.2706 179.6805   C.3      778 ligands_prepared   0.0000
   6 C6     220.9005 153.3942 178.1493   C.3      778 ligands_prepared   0.0000
   7 C7     222.1816 152.8027 177.5435   C.3      778 ligands_prepared   0.0000
   8 O8     223.2537 153.6980 177.8148   O.3      778 ligands_prepared   0.0000
   9 C9     224.3500 153.6328 177.0169   C.2      778 ligands_prepared   0.0000
  10 O10    224.6043 152.6473 176.3645   O.2      778 ligands_prepared   0.0000
  11 C11    225.1195 154.8850 177.0747   C.ar     778 ligands_prepared   0.0000
  12 C12    225.0092 155.7732 175.9971   C.ar     778 ligands_prepared   0.0000
  13 C13    225.7224 156.9693 176.0065   C.ar     778 ligands_prepared   0.0000
  14 C14    226.5427 157.2920 177.0824   C.ar     778 ligands_prepared   0.0000
  15 C15    226.6442 156.3912 178.1527   C.ar     778 ligands_prepared   0.0000
  16 N16    227.4937 156.7122 179.2729   N.pl3    778 ligands_prepared   0.0000
  17 O17    227.9166 155.8069 179.9789   O.2      778 ligands_prepared   0.0000
  18 O18    227.7738 157.8842 179.4889   O.2      778 ligands_prepared   0.0000
  19 C19    225.9386 155.1833 178.1617   C.ar     778 ligands_prepared   0.0000
  20 H20    218.4632 152.5790 175.8289   H        778 ligands_prepared   0.0000
  21 H21    220.2071 152.8080 175.5872   H        778 ligands_prepared   0.0000
  22 H22    219.2084 154.1910 176.1091   H        778 ligands_prepared   0.0000
  23 H23    219.7436 151.6714 177.6961   H        778 ligands_prepared   0.0000
  24 H24    217.8432 152.2213 178.8163   H        778 ligands_prepared   0.0000
  25 H25    217.8603 153.8771 178.1486   H        778 ligands_prepared   0.0000
  26 H26    219.0701 154.6454 179.9844   H        778 ligands_prepared   0.0000
  27 H27    218.6724 153.1074 180.7515   H        778 ligands_prepared   0.0000
  28 H28    221.2615 152.2799 180.0112   H        778 ligands_prepared   0.0000
  29 H29    221.5664 154.0105 180.1486   H        778 ligands_prepared   0.0000
  30 H30    220.8241 154.4778 177.8485   H        778 ligands_prepared   0.0000
  31 H31    222.5258 151.8789 178.0568   H        778 ligands_prepared   0.0000
  32 H32    222.1035 152.6202 176.4534   H        778 ligands_prepared   0.0000
  33 H33    224.3614 155.5202 175.1481   H        778 ligands_prepared   0.0000
  34 H34    225.6341 157.6586 175.1596   H        778 ligands_prepared   0.0000
  35 H35    227.1005 158.2392 177.0914   H        778 ligands_prepared   0.0000
  36 H36    226.0322 154.4850 179.0061   H        778 ligands_prepared   0.0000
@<TRIPOS>BOND
   1  1  2    1
   2  1 20    1
   3  1 21    1
   4  1 22    1
   5  2  3    1
   6  2  6    1
   7  2 23    1
   8  3  4    1
   9  3 24    1
  10  3 25    1
  11  4  5    1
  12  4 26    1
  13  4 27    1
  14  5  6    1
  15  5 28    1
  16  5 29    1
  17  6  7    1
  18  6 30    1
  19  7  8    1
  20  7 31    1
  21  7 32    1
  22  8  9    1
  23  9 10    2
  24  9 11    1
  25 11 12   ar
  26 11 19   ar
  27 12 13   ar
  28 12 33    1
  29 13 14   ar
  30 13 34    1
  31 14 15   ar
  32 14 35    1
  33 15 16    1
  34 15 19   ar
  35 16 17    2
  36 16 18    2
  37 19 36    1
