@<TRIPOS>MOLECULE
CHEMBL2179865_LIG
45 48 1 0 0
SMALL
USER_CHARGES

@<TRIPOS>ATOM
   1 O1     221.8869 152.6135 176.7113   O.2      778 ligands_prepared   0.0000
   2 C2     221.9909 153.3951 177.6474   C.2      778 ligands_prepared   0.0000
   3 N3     223.0571 154.2477 177.7467   N.am     778 ligands_prepared   0.0000
   4 C4     224.0766 154.2428 176.6972   C.3      778 ligands_prepared   0.0000
   5 C5     224.7849 152.8678 176.6199   C.3      778 ligands_prepared   0.0000
   6 C6     225.5731 152.5925 177.9063   C.3      778 ligands_prepared   0.0000
   7 C7     226.5915 153.7154 178.1486   C.3      778 ligands_prepared   0.0000
   8 N8     226.5353 154.7188 177.0106   N.4      778 ligands_prepared   0.0000
   9 C9     226.8267 154.0039 175.7060   C.3      778 ligands_prepared   0.0000
  10 C10    225.7587 152.9350 175.4336   C.3      778 ligands_prepared   0.0000
  11 C11    225.1470 155.3514 176.9897   C.3      778 ligands_prepared   0.0000
  12 C12    225.0683 156.4739 175.9503   C.3      778 ligands_prepared   0.0000
  13 C13    225.8915 157.6624 176.3116   C.ar     778 ligands_prepared   0.0000
  14 C14    226.6042 157.7019 177.5127   C.ar     778 ligands_prepared   0.0000
  15 C15    227.3796 158.8198 177.8111   C.ar     778 ligands_prepared   0.0000
  16 C16    227.4272 159.8692 176.8870   C.ar     778 ligands_prepared   0.0000
  17 N17    226.7507 159.8356 175.7201   N.ar     778 ligands_prepared   0.0000
  18 C18    226.0015 158.7537 175.4367   C.ar     778 ligands_prepared   0.0000
  19 C19    220.9810 153.4750 178.7052   C.2      778 ligands_prepared   0.0000
  20 O20    221.4459 153.6983 179.9931   O.3      778 ligands_prepared   0.0000
  21 C21    220.3333 153.7423 180.8028   C.2      778 ligands_prepared   0.0000
  22 C22    219.1863 153.5618 180.0747   C.2      778 ligands_prepared   0.0000
  23 C23    219.6132 153.3890 178.7160   C.2      778 ligands_prepared   0.0000
  24 Br24   218.4994 153.1204 177.2574   Br       778 ligands_prepared   0.0000
  25 H25    223.1447 154.9294 178.5002   H        778 ligands_prepared   0.0000
  26 H26    223.5732 154.4557 175.7096   H        778 ligands_prepared   0.0000
  27 H27    224.0327 152.0584 176.4523   H        778 ligands_prepared   0.0000
  28 H28    224.8988 152.4841 178.7800   H        778 ligands_prepared   0.0000
  29 H29    226.0858 151.6102 177.8360   H        778 ligands_prepared   0.0000
  30 H30    226.3969 154.2471 179.1080   H        778 ligands_prepared   0.0000
  31 H31    227.6296 153.3173 178.2231   H        778 ligands_prepared   0.0000
  32 H32    227.2493 155.4767 177.1645   H        778 ligands_prepared   0.0000
  33 H33    226.8776 154.7497 174.8816   H        778 ligands_prepared   0.0000
  34 H34    227.8452 153.5528 175.7719   H        778 ligands_prepared   0.0000
  35 H35    226.2325 151.9469 175.2654   H        778 ligands_prepared   0.0000
  36 H36    225.2164 153.1533 174.4904   H        778 ligands_prepared   0.0000
  37 H37    224.9749 155.7828 178.0155   H        778 ligands_prepared   0.0000
  38 H38    225.3323 156.0991 174.9342   H        778 ligands_prepared   0.0000
  39 H39    223.9900 156.7717 175.8384   H        778 ligands_prepared   0.0000
  40 H40    226.5685 156.8597 178.2105   H        778 ligands_prepared   0.0000
  41 H41    227.9401 158.8767 178.7450   H        778 ligands_prepared   0.0000
  42 H42    228.0296 160.7701 177.0726   H        778 ligands_prepared   0.0000
  43 H43    225.4788 158.7685 174.4697   H        778 ligands_prepared   0.0000
  44 H44    220.5726 153.9103 181.8378   H        778 ligands_prepared   0.0000
  45 H45    218.1720 153.5518 180.4322   H        778 ligands_prepared   0.0000
@<TRIPOS>BOND
   1  1  2    2
   2  2  3   am
   3  2 19    1
   4  3  4    1
   5  3 25    1
   6  4  5    1
   7  4 11    1
   8  4 26    1
   9  5  6    1
  10  5 10    1
  11  5 27    1
  12  6  7    1
  13  6 28    1
  14  6 29    1
  15  7  8    1
  16  7 30    1
  17  7 31    1
  18  8  9    1
  19  8 11    1
  20  8 32    1
  21  9 10    1
  22  9 33    1
  23  9 34    1
  24 10 35    1
  25 10 36    1
  26 11 12    1
  27 11 37    1
  28 12 13    1
  29 12 38    1
  30 12 39    1
  31 13 14   ar
  32 13 18   ar
  33 14 15   ar
  34 14 40    1
  35 15 16   ar
  36 15 41    1
  37 16 17   ar
  38 16 42    1
  39 17 18   ar
  40 18 43    1
  41 19 20    1
  42 19 23    2
  43 20 21    1
  44 21 22    2
  45 21 44    1
  46 22 23    1
  47 22 45    1
  48 23 24    1
