@<TRIPOS>MOLECULE
CHEMBL2179863_LIG
48 51 1 0 0
SMALL
USER_CHARGES

@<TRIPOS>ATOM
   1 C1     226.6651 155.9922 178.6932   C.3      778 ligands_prepared   0.0000
   2 C2     225.7000 155.3695 177.7914   C.2      778 ligands_prepared   0.0000
   3 C3     224.9404 155.7877 176.7235   C.2      778 ligands_prepared   0.0000
   4 C4     224.1669 154.6577 176.2998   C.2      778 ligands_prepared   0.0000
   5 C5     224.5072 153.6211 177.1314   C.2      778 ligands_prepared   0.0000
   6 C6     224.0722 152.2325 177.2157   C.2      778 ligands_prepared   0.0000
   7 O7     224.8460 151.2997 177.0204   O.2      778 ligands_prepared   0.0000
   8 N8     222.7529 152.0008 177.5084   N.am     778 ligands_prepared   0.0000
   9 C9     221.8405 153.1153 177.7487   C.3      778 ligands_prepared   0.0000
  10 C10    221.7045 153.3942 179.2679   C.3      778 ligands_prepared   0.0000
  11 C11    220.9051 152.2738 179.9466   C.3      778 ligands_prepared   0.0000
  12 C12    219.4693 152.2609 179.3996   C.3      778 ligands_prepared   0.0000
  13 N13    219.3669 153.1902 178.2021   N.4      778 ligands_prepared   1.0000
  14 C14    219.6009 154.6163 178.6672   C.3      778 ligands_prepared   0.0000
  15 C15    220.9372 154.7156 179.4173   C.3      778 ligands_prepared   0.0000
  16 C16    220.4218 152.7726 177.1804   C.3      778 ligands_prepared   0.0000
  17 C17    220.1753 153.4621 175.8357   C.3      778 ligands_prepared   0.0000
  18 C18    219.0241 152.8554 175.1068   C.ar     778 ligands_prepared   0.0000
  19 C19    217.7082 153.1051 175.5076   C.ar     778 ligands_prepared   0.0000
  20 C20    216.6591 152.5270 174.7994   C.ar     778 ligands_prepared   0.0000
  21 C21    216.9576 151.7090 173.7030   C.ar     778 ligands_prepared   0.0000
  22 N22    218.2238 151.4483 173.3204   N.ar     778 ligands_prepared   0.0000
  23 C23    219.2367 152.0073 174.0111   C.ar     778 ligands_prepared   0.0000
  24 O24    225.4555 154.0363 178.0613   O.3      778 ligands_prepared   0.0000
  25 H25    226.2477 156.1447 179.7085   H        778 ligands_prepared   0.0000
  26 H26    227.5758 155.3793 178.8310   H        778 ligands_prepared   0.0000
  27 H27    226.9968 156.9822 178.3313   H        778 ligands_prepared   0.0000
  28 H28    224.9133 156.7621 176.2761   H        778 ligands_prepared   0.0000
  29 H29    223.4629 154.6438 175.4856   H        778 ligands_prepared   0.0000
  30 H30    222.3635 151.0605 177.5274   H        778 ligands_prepared   0.0000
  31 H31    222.2409 154.0373 177.2365   H        778 ligands_prepared   0.0000
  32 H32    222.7148 153.4810 179.7340   H        778 ligands_prepared   0.0000
  33 H33    220.8989 152.4177 181.0470   H        778 ligands_prepared   0.0000
  34 H34    221.3915 151.2879 179.8026   H        778 ligands_prepared   0.0000
  35 H35    219.1563 151.2367 179.0928   H        778 ligands_prepared   0.0000
  36 H36    218.7372 152.5913 180.1711   H        778 ligands_prepared   0.0000
  37 H37    218.4134 153.1174 177.7642   H        778 ligands_prepared   0.0000
  38 H38    218.7478 154.9209 179.3183   H        778 ligands_prepared   0.0000
  39 H39    219.5738 155.2971 177.7875   H        778 ligands_prepared   0.0000
  40 H40    221.5348 155.5679 179.0352   H        778 ligands_prepared   0.0000
  41 H41    220.7717 154.9407 180.4901   H        778 ligands_prepared   0.0000
  42 H42    220.3279 151.6574 177.0509   H        778 ligands_prepared   0.0000
  43 H43    221.1088 153.3807 175.2185   H        778 ligands_prepared   0.0000
  44 H44    220.0531 154.5621 175.9589   H        778 ligands_prepared   0.0000
  45 H45    217.5030 153.7441 176.3721   H        778 ligands_prepared   0.0000
  46 H46    215.6227 152.7032 175.0911   H        778 ligands_prepared   0.0000
  47 H47    216.1653 151.2368 173.1062   H        778 ligands_prepared   0.0000
  48 H48    220.2504 151.7520 173.6687   H        778 ligands_prepared   0.0000
@<TRIPOS>BOND
   1  1  2    1
   2  1 25    1
   3  1 26    1
   4  1 27    1
   5  2  3    2
   6  2 24    1
   7  3  4    1
   8  3 28    1
   9  4  5    2
  10  4 29    1
  11  5  6    1
  12  5 24    1
  13  6  7    2
  14  6  8   am
  15  8  9    1
  16  8 30    1
  17  9 10    1
  18  9 16    1
  19  9 31    1
  20 10 11    1
  21 10 15    1
  22 10 32    1
  23 11 12    1
  24 11 33    1
  25 11 34    1
  26 12 13    1
  27 12 35    1
  28 12 36    1
  29 13 14    1
  30 13 16    1
  31 13 37    1
  32 14 15    1
  33 14 38    1
  34 14 39    1
  35 15 40    1
  36 15 41    1
  37 16 17    1
  38 16 42    1
  39 17 18    1
  40 17 43    1
  41 17 44    1
  42 18 19   ar
  43 18 23   ar
  44 19 20   ar
  45 19 45    1
  46 20 21   ar
  47 20 46    1
  48 21 22   ar
  49 21 47    1
  50 22 23   ar
  51 23 48    1
