@<TRIPOS>MOLECULE
CHEMBL3329534_LIG
33 35 1 0 0
SMALL
USER_CHARGES

@<TRIPOS>ATOM
   1 O1     221.0113 152.1985 176.5874   O.2      778 ligands_prepared   0.0000
   2 C2     219.9685 152.8338 176.7023   C.2      778 ligands_prepared   0.0000
   3 C3     219.6472 153.6964 177.8980   C.3      778 ligands_prepared   0.0000
   4 C4     218.5007 153.0849 178.7316   C.3      778 ligands_prepared   0.0000
   5 C5     218.8249 153.3985 180.1276   C.3      778 ligands_prepared   0.0000
   6 C6     220.4139 154.1975 180.1922   C.3      778 ligands_prepared   0.0000
   7 C7     220.8349 153.7391 178.7860   C.3      778 ligands_prepared   0.0000
   8 N8     219.0606 152.7446 175.6715   N.am     778 ligands_prepared   0.0000
   9 C9     217.7650 153.4456 175.8447   C.3      778 ligands_prepared   0.0000
  10 C10    216.7229 152.9232 174.8495   C.3      778 ligands_prepared   0.0000
  11 C11    217.3017 153.0292 173.4097   C.3      778 ligands_prepared   0.0000
  12 C12    217.9996 151.6719 173.7008   C.3      778 ligands_prepared   0.0000
  13 C13    219.3071 151.9320 174.4626   C.3      778 ligands_prepared   0.0000
  14 N14    216.9033 151.3844 174.7609   N.4      778 ligands_prepared   1.0000
  15 H15    219.3492 154.7196 177.5639   H        778 ligands_prepared   0.0000
  16 H16    218.4551 151.9877 178.6016   H        778 ligands_prepared   0.0000
  17 H17    217.5208 153.4755 178.4089   H        778 ligands_prepared   0.0000
  18 H18    218.6549 152.5156 180.7625   H        778 ligands_prepared   0.0000
  19 H19    218.1395 154.1863 180.4871   H        778 ligands_prepared   0.0000
  20 H20    221.1140 153.8044 180.9505   H        778 ligands_prepared   0.0000
  21 H21    220.4318 155.2935 180.2862   H        778 ligands_prepared   0.0000
  22 H22    221.3354 152.7568 178.8180   H        778 ligands_prepared   0.0000
  23 H23    221.5735 154.4369 178.3499   H        778 ligands_prepared   0.0000
  24 H24    217.9083 154.5455 175.7033   H        778 ligands_prepared   0.0000
  25 H25    217.4137 153.3110 176.8986   H        778 ligands_prepared   0.0000
  26 H26    215.6909 153.2546 175.0422   H        778 ligands_prepared   0.0000
  27 H27    216.5547 153.0064 172.6047   H        778 ligands_prepared   0.0000
  28 H28    217.9601 153.8834 173.2102   H        778 ligands_prepared   0.0000
  29 H29    218.0740 150.9194 172.8995   H        778 ligands_prepared   0.0000
  30 H30    220.0286 152.4589 173.7870   H        778 ligands_prepared   0.0000
  31 H31    219.7853 150.9614 174.7429   H        778 ligands_prepared   0.0000
  32 H32    216.0807 150.8810 174.3928   H        778 ligands_prepared   0.0000
  33 H33    217.2172 150.9142 175.6214   H        778 ligands_prepared   0.0000
@<TRIPOS>BOND
   1  1  2    2
   2  2  3    1
   3  2  8   am
   4  3  4    1
   5  3  7    1
   6  3 15    1
   7  4  5    1
   8  4 16    1
   9  4 17    1
  10  5  6    1
  11  5 18    1
  12  5 19    1
  13  6  7    1
  14  6 20    1
  15  6 21    1
  16  7 22    1
  17  7 23    1
  18  9  8    1
  19  8 13    1
  20  9 10    1
  21  9 24    1
  22  9 25    1
  23 10 11    1
  24 10 14    1
  25 10 26    1
  26 11 12    1
  27 11 27    1
  28 11 28    1
  29 12 13    1
  30 12 14    1
  31 12 29    1
  32 13 30    1
  33 13 31    1
  34 14 32    1
  35 14 33    1
