@<TRIPOS>MOLECULE
CHEMBL2179870_LIG
54 58 1 0 0
SMALL
USER_CHARGES

@<TRIPOS>ATOM
   1 O1     226.8029 150.9082 177.3723   O.2      778 ligands_prepared   0.0000
   2 C2     226.3445 152.0203 177.1592   C.2      778 ligands_prepared   0.0000
   3 N3     227.1409 153.1099 176.9472   N.am     778 ligands_prepared   0.0000
   4 C4     226.5495 154.4205 176.6797   C.3      778 ligands_prepared   0.0000
   5 C5     226.7112 154.7964 175.1852   C.3      778 ligands_prepared   0.0000
   6 C6     225.9853 156.1337 174.9765   C.3      778 ligands_prepared   0.0000
   7 C7     226.6692 157.2234 175.8149   C.3      778 ligands_prepared   0.0000
   8 N8     227.7825 156.6233 176.6509   N.4      778 ligands_prepared   0.0000
   9 C9     228.8299 156.0353 175.7234   C.3      778 ligands_prepared   0.0000
  10 C10    228.1915 154.9709 174.8204   C.3      778 ligands_prepared   0.0000
  11 C11    227.2540 155.5110 177.5541   C.3      778 ligands_prepared   0.0000
  12 C12    226.2935 156.0795 178.6034   C.3      778 ligands_prepared   0.0000
  13 C13    226.9908 156.9852 179.5607   C.ar     778 ligands_prepared   0.0000
  14 C14    227.1402 158.3479 179.2893   C.ar     778 ligands_prepared   0.0000
  15 C15    227.7922 159.1603 180.2123   C.ar     778 ligands_prepared   0.0000
  16 C16    228.2769 158.5829 181.3914   C.ar     778 ligands_prepared   0.0000
  17 N17    228.1317 157.2699 181.6654   N.ar     778 ligands_prepared   0.0000
  18 C18    227.5003 156.4878 180.7703   C.ar     778 ligands_prepared   0.0000
  19 C19    224.8846 152.2876 177.1521   C.2      778 ligands_prepared   0.0000
  20 C20    224.0648 152.5846 178.2991   C.2      778 ligands_prepared   0.0000
  21 C21    222.7921 152.7072 177.7909   C.2      778 ligands_prepared   0.0000
  22 C22    221.4943 152.9856 178.3491   C.ar     778 ligands_prepared   0.0000
  23 C23    221.3669 153.4054 179.6785   C.ar     778 ligands_prepared   0.0000
  24 C24    220.1046 153.6732 180.1993   C.ar     778 ligands_prepared   0.0000
  25 C25    218.9711 153.5244 179.4015   C.ar     778 ligands_prepared   0.0000
  26 C26    219.0973 153.1070 178.0768   C.ar     778 ligands_prepared   0.0000
  27 C27    220.3565 152.8382 177.5466   C.ar     778 ligands_prepared   0.0000
  28 O28    222.8335 152.5027 176.4162   O.3      778 ligands_prepared   0.0000
  29 N29    224.1298 152.2435 176.0568   N.2      778 ligands_prepared   0.0000
  30 H30    228.2052 153.0036 176.9771   H        778 ligands_prepared   0.0000
  31 H31    225.4888 154.3922 176.9290   H        778 ligands_prepared   0.0000
  32 H32    226.2615 154.0272 174.5575   H        778 ligands_prepared   0.0000
  33 H33    224.9454 156.0350 175.2879   H        778 ligands_prepared   0.0000
  34 H34    226.0250 156.4079 173.9224   H        778 ligands_prepared   0.0000
  35 H35    225.9336 157.6846 176.4738   H        778 ligands_prepared   0.0000
  36 H36    227.0867 157.9795 175.1499   H        778 ligands_prepared   0.0000
  37 H37    228.2283 157.3882 177.2519   H        778 ligands_prepared   0.0000
  38 H38    229.6216 155.5778 176.3167   H        778 ligands_prepared   0.0000
  39 H40    228.2727 155.2841 173.7796   H        778 ligands_prepared   0.0000
  40 H41    228.7115 154.0226 174.9566   H        778 ligands_prepared   0.0000
  41 H42    228.0977 155.0514 178.0687   H        778 ligands_prepared   0.0000
  42 H43    225.8496 155.2536 179.1591   H        778 ligands_prepared   0.0000
  43 H44    225.5086 156.6401 178.0958   H        778 ligands_prepared   0.0000
  44 H45    226.7498 158.7706 178.3635   H        778 ligands_prepared   0.0000
  45 H46    227.9228 160.2253 180.0207   H        778 ligands_prepared   0.0000
  46 H47    228.7902 159.2168 182.1145   H        778 ligands_prepared   0.0000
  47 H48    227.3801 155.4276 180.9932   H        778 ligands_prepared   0.0000
  48 H49    224.3818 152.6889 179.3367   H        778 ligands_prepared   0.0000
  49 H50    222.2527 153.5220 180.3030   H        778 ligands_prepared   0.0000
  50 H51    220.0018 154.0002 181.2340   H        778 ligands_prepared   0.0000
  51 H52    217.9843 153.7348 179.8138   H        778 ligands_prepared   0.0000
  52 H53    218.2090 152.9910 177.4557   H        778 ligands_prepared   0.0000
  53 H54    220.4561 152.5143 176.5107   H        778 ligands_prepared   0.0000
  54 H265   229.2505 156.8282 175.1050   H        778 ligands_prepared   0.0000
@<TRIPOS>BOND
   1  1  2    2
   2  2  3   am
   3  2 19    1
   4  4  3    1
   5  4  5    1
   6  4 11    1
   7  5  6    1
   8  5 10    1
   9  6  7    1
  10  7  8    1
  11  8  9    1
  12  8 11    1
  13  9 10    1
  14 11 12    1
  15 12 13    1
  16 13 14   ar
  17 13 18   ar
  18 14 15   ar
  19 15 16   ar
  20 16 17   ar
  21 17 18   ar
  22 19 20    1
  23 19 29    2
  24 20 21    2
  25 21 22    1
  26 21 28    1
  27 22 23   ar
  28 22 27   ar
  29 23 24   ar
  30 24 25   ar
  31 25 26   ar
  32 26 27   ar
  33 28 29    1
  34 37  8    1
  35 50 24    1
  36 49 23    1
  37 53 27    1
  38 52 26    1
  39 51 25    1
  40 30  3    1
  41 32  5    1
  42 44 14    1
  43 47 18    1
  44 46 16    1
  45 45 15    1
  46 31  4    1
  47 43 12    1
  48 42 12    1
  49 41 11    1
  50 40 10    1
  51  9 54    1
  52  7 36    1
  53 34  6    1
  54 48 20    1
  55 33  6    1
  56 39 10    1
  57 38  9    1
  58 35  7    1
