@<TRIPOS>MOLECULE
CHEMBL2179969_LIG
30 32 1 0 0
SMALL
USER_CHARGES

@<TRIPOS>ATOM
   1 O1     221.1078 152.5019 176.2834   O.2      778 ligands_prepared   0.0000
   2 C2     219.9677 152.8039 176.6488   C.2      778 ligands_prepared   0.0000
   3 C3     219.7671 153.2380 178.0288   C.2      778 ligands_prepared   0.0000
   4 C4     218.7115 153.0459 178.8851   C.2      778 ligands_prepared   0.0000
   5 C5     219.0622 153.7000 180.1147   C.2      778 ligands_prepared   0.0000
   6 C6     220.3069 154.2413 179.9218   C.2      778 ligands_prepared   0.0000
   7 O7     220.7625 153.9772 178.6525   O.3      778 ligands_prepared   0.0000
   8 N8     218.9311 152.6907 175.7731   N.am     778 ligands_prepared   0.0000
   9 C9     217.4859 153.0879 176.1472   C.3      778 ligands_prepared   0.0000
  10 C10    216.8566 152.7825 174.8106   C.3      778 ligands_prepared   0.0000
  11 C11    215.8941 152.2998 173.7465   C.3      778 ligands_prepared   0.0000
  12 N12    217.0872 151.8697 172.7502   N.4      778 ligands_prepared   1.0000
  13 C13    218.3608 152.7194 173.1928   C.3      778 ligands_prepared   0.0000
  14 C14    217.6237 153.8364 173.8772   C.3      778 ligands_prepared   0.0000
  15 C15    219.2716 152.1789 174.3748   C.3      778 ligands_prepared   0.0000
  16 H16    217.7947 152.5156 178.6906   H        778 ligands_prepared   0.0000
  17 H17    218.4498 153.7427 180.9950   H        778 ligands_prepared   0.0000
  18 H18    221.0003 154.8104 180.5085   H        778 ligands_prepared   0.0000
  19 H19    217.1357 152.4552 176.9888   H        778 ligands_prepared   0.0000
  20 H20    217.4537 154.1542 176.4481   H        778 ligands_prepared   0.0000
  21 H21    217.2469 151.6413 174.9177   H        778 ligands_prepared   0.0000
  22 H22    215.2807 151.4129 173.9832   H        778 ligands_prepared   0.0000
  23 H23    215.2580 153.0543 173.2536   H        778 ligands_prepared   0.0000
  24 H24    217.2610 150.8558 172.8087   H        778 ligands_prepared   0.0000
  25 H25    216.8447 152.0926 171.7721   H        778 ligands_prepared   0.0000
  26 H26    218.9510 152.9031 172.2748   H        778 ligands_prepared   0.0000
  27 H27    218.2442 154.5848 174.3929   H        778 ligands_prepared   0.0000
  28 H28    216.9486 154.4478 173.2584   H        778 ligands_prepared   0.0000
  29 H29    219.2746 151.0685 174.4006   H        778 ligands_prepared   0.0000
  30 H30    220.3160 152.5087 174.1495   H        778 ligands_prepared   0.0000
@<TRIPOS>BOND
   1  1  2    2
   2  2  3    1
   3  2  8   am
   4  3  4    2
   5  3  7    1
   6  4  5    1
   7  4 16    1
   8  5  6    2
   9  5 17    1
  10  6  7    1
  11  6 18    1
  12  9  8    1
  13  8 15    1
  14  9 10    1
  15  9 19    1
  16  9 20    1
  17 10 11    1
  18 10 14    1
  19 10 21    1
  20 11 12    1
  21 11 22    1
  22 11 23    1
  23 12 13    1
  24 12 24    1
  25 12 25    1
  26 13 14    1
  27 13 15    1
  28 13 26    1
  29 14 27    1
  30 14 28    1
  31 15 29    1
  32 15 30    1
