@<TRIPOS>MOLECULE
CHEMBL2177538_LIG
32 34 1 0 0
SMALL
USER_CHARGES

@<TRIPOS>ATOM
   1 C1     217.5346 153.4028 175.3747   C.2      778 ligands_prepared   0.0000
   2 C2     218.7900 153.0037 175.6306   C.2      778 ligands_prepared   0.0000
   3 C3     219.3452 153.0486 176.9834   C.ar     778 ligands_prepared   0.0000
   4 C4     218.5541 153.4005 178.0816   C.ar     778 ligands_prepared   0.0000
   5 C5     219.1210 153.4323 179.3527   C.ar     778 ligands_prepared   0.0000
   6 C6     220.4727 153.1035 179.4942   C.ar     778 ligands_prepared   0.0000
   7 N7     221.2478 152.7665 178.4426   N.ar     778 ligands_prepared   0.0000
   8 C8     220.6979 152.7390 177.2153   C.ar     778 ligands_prepared   0.0000
   9 C9     219.7142 152.5061 174.5615   C.3      778 ligands_prepared   0.0000
  10 C10    218.9581 152.1718 173.2627   C.3      778 ligands_prepared   0.0000
  11 C11    218.1413 150.8722 173.4540   C.3      778 ligands_prepared   0.0000
  12 N12    216.6890 151.0412 173.0724   N.4      778 ligands_prepared   1.0000
  13 C13    216.0182 152.1596 173.8426   C.3      778 ligands_prepared   0.0000
  14 C14    216.9351 153.3916 173.9997   C.3      778 ligands_prepared   0.0000
  15 C15    218.0363 153.3521 172.9319   C.3      778 ligands_prepared   0.0000
  16 H16    216.8672 153.7573 176.1595   H        778 ligands_prepared   0.0000
  17 H17    217.4978 153.6470 177.9409   H        778 ligands_prepared   0.0000
  18 H18    218.5232 153.7081 180.2226   H        778 ligands_prepared   0.0000
  19 H19    220.9668 153.1076 180.4765   H        778 ligands_prepared   0.0000
  20 H20    221.3709 152.4630 176.3914   H        778 ligands_prepared   0.0000
  21 H21    220.4883 153.2796 174.3437   H        778 ligands_prepared   0.0000
  22 H22    220.2836 151.6192 174.9123   H        778 ligands_prepared   0.0000
  23 H23    219.6942 152.0238 172.4369   H        778 ligands_prepared   0.0000
  24 H24    218.1894 150.5187 174.5104   H        778 ligands_prepared   0.0000
  25 H25    218.5666 150.0508 172.8302   H        778 ligands_prepared   0.0000
  26 H26    216.6189 151.2326 172.0477   H        778 ligands_prepared   0.0000
  27 H27    216.1760 150.1457 173.2393   H        778 ligands_prepared   0.0000
  28 H28    215.0843 152.4336 173.2938   H        778 ligands_prepared   0.0000
  29 H29    215.6928 151.7727 174.8351   H        778 ligands_prepared   0.0000
  30 H30    216.3157 154.3175 173.8645   H        778 ligands_prepared   0.0000
  31 H31    218.6090 154.3006 172.9315   H        778 ligands_prepared   0.0000
  32 H32    217.6155 153.2770 171.9122   H        778 ligands_prepared   0.0000
@<TRIPOS>BOND
   1  1  2    2
   2  1 14    1
   3  1 16    1
   4  2  3    1
   5  2  9    1
   6  3  4   ar
   7  3  8   ar
   8  4  5   ar
   9  4 17    1
  10  5  6   ar
  11  5 18    1
  12  6  7   ar
  13  6 19    1
  14  7  8   ar
  15  8 20    1
  16  9 10    1
  17  9 21    1
  18  9 22    1
  19 10 11    1
  20 10 15    1
  21 10 23    1
  22 11 12    1
  23 11 24    1
  24 11 25    1
  25 12 13    1
  26 12 26    1
  27 12 27    1
  28 13 14    1
  29 13 28    1
  30 13 29    1
  31 14 15    1
  32 14 30    1
  33 15 31    1
  34 15 32    1
