@<TRIPOS>MOLECULE
CHEMBL2179854_LIG
47 50 1 0 0
SMALL
USER_CHARGES

@<TRIPOS>ATOM
   1 O1     221.8570 152.5465 176.7639   O.2      778 ligands_prepared   0.0000
   2 C2     221.9506 153.3420 177.6884   C.2      778 ligands_prepared   0.0000
   3 N3     223.0158 154.1976 177.7699   N.am     778 ligands_prepared   0.0000
   4 C4     224.0498 154.1690 176.7323   C.3      778 ligands_prepared   0.0000
   5 C5     224.7642 152.7958 176.7078   C.3      778 ligands_prepared   0.0000
   6 C6     225.4961 152.5400 178.0335   C.3      778 ligands_prepared   0.0000
   7 C7     226.4558 153.6998 178.3359   C.3      778 ligands_prepared   0.0000
   8 N8     226.4930 154.6528 177.1562   N.4      778 ligands_prepared   1.0000
   9 C9     226.8812 153.8729 175.9144   C.3      778 ligands_prepared   0.0000
  10 C10    225.7898 152.8513 175.5658   C.3      778 ligands_prepared   0.0000
  11 C11    225.1115 155.2857 177.0073   C.3      778 ligands_prepared   0.0000
  12 C12    225.1247 156.3357 175.8922   C.3      778 ligands_prepared   0.0000
  13 C13    225.8959 157.5466 176.2910   C.ar     778 ligands_prepared   0.0000
  14 C14    226.5105 157.6313 177.5418   C.ar     778 ligands_prepared   0.0000
  15 C15    227.2159 158.7838 177.8786   C.ar     778 ligands_prepared   0.0000
  16 C16    227.2872 159.8250 176.9461   C.ar     778 ligands_prepared   0.0000
  17 N17    226.7085 159.7459 175.7301   N.ar     778 ligands_prepared   0.0000
  18 C18    226.0295 158.6303 175.4076   C.ar     778 ligands_prepared   0.0000
  19 C19    220.9099 153.4421 178.7484   C.ar     778 ligands_prepared   0.0000
  20 C20    219.5740 153.2584 178.3988   C.ar     778 ligands_prepared   0.0000
  21 C21    218.6056 153.4015 179.4004   C.ar     778 ligands_prepared   0.0000
  22 N22    218.9239 153.7105 180.6724   N.ar     778 ligands_prepared   0.0000
  23 C23    220.2179 153.8938 180.9970   C.ar     778 ligands_prepared   0.0000
  24 C24    221.2514 153.7667 180.0588   C.ar     778 ligands_prepared   0.0000
  25 H25    223.1307 154.8568 178.5379   H        778 ligands_prepared   0.0000
  26 H26    223.5609 154.3545 175.7320   H        778 ligands_prepared   0.0000
  27 H27    224.0224 151.9822 176.5189   H        778 ligands_prepared   0.0000
  28 H28    226.0513 151.5807 177.9793   H        778 ligands_prepared   0.0000
  29 H29    224.7830 152.3984 178.8705   H        778 ligands_prepared   0.0000
  30 H30    226.1492 154.2637 179.2484   H        778 ligands_prepared   0.0000
  31 H31    227.4906 153.3338 178.5346   H        778 ligands_prepared   0.0000
  32 H32    227.1981 155.4157 177.3297   H        778 ligands_prepared   0.0000
  33 H33    227.0681 154.5787 175.0751   H        778 ligands_prepared   0.0000
  34 H34    227.8566 153.3656 176.1096   H        778 ligands_prepared   0.0000
  35 H35    225.3003 153.1055 174.6043   H        778 ligands_prepared   0.0000
  36 H36    226.2360 151.8495 175.3970   H        778 ligands_prepared   0.0000
  37 H37    224.8816 155.7903 177.9884   H        778 ligands_prepared   0.0000
  38 H38    224.0649 156.6146 175.6473   H        778 ligands_prepared   0.0000
  39 H39    225.4989 155.9027 174.9364   H        778 ligands_prepared   0.0000
  40 H40    226.4473 156.8011 178.2500   H        778 ligands_prepared   0.0000
  41 H41    227.7036 158.8738 178.8493   H        778 ligands_prepared   0.0000
  42 H42    227.8268 160.7579 177.1649   H        778 ligands_prepared   0.0000
  43 H43    225.5803 158.6096 174.4040   H        778 ligands_prepared   0.0000
  44 H44    219.2879 153.0156 177.3730   H        778 ligands_prepared   0.0000
  45 H45    217.5337 153.2744 179.1864   H        778 ligands_prepared   0.0000
  46 H46    220.4257 154.1599 182.0436   H        778 ligands_prepared   0.0000
  47 H47    222.2883 153.9309 180.3568   H        778 ligands_prepared   0.0000
@<TRIPOS>BOND
   1  1  2    2
   2  2  3   am
   3  2 19    1
   4  3  4    1
   5  3 25    1
   6  4  5    1
   7  4 11    1
   8  4 26    1
   9  5  6    1
  10  5 10    1
  11  5 27    1
  12  6  7    1
  13  6 28    1
  14  6 29    1
  15  7  8    1
  16  7 30    1
  17  7 31    1
  18  8  9    1
  19  8 11    1
  20  8 32    1
  21  9 10    1
  22  9 33    1
  23  9 34    1
  24 10 35    1
  25 10 36    1
  26 11 12    1
  27 11 37    1
  28 12 13    1
  29 12 38    1
  30 12 39    1
  31 13 14   ar
  32 13 18   ar
  33 14 15   ar
  34 14 40    1
  35 15 16   ar
  36 15 41    1
  37 16 17   ar
  38 16 42    1
  39 17 18   ar
  40 18 43    1
  41 19 20   ar
  42 19 24   ar
  43 20 21   ar
  44 20 44    1
  45 21 22   ar
  46 21 45    1
  47 22 23   ar
  48 23 24   ar
  49 23 46    1
  50 24 47    1
