@<TRIPOS>MOLECULE
CHEMBL2180259_LIG
54 58 1 0 0
SMALL
USER_CHARGES

@<TRIPOS>ATOM
   1 C1     221.8986 160.5981 173.5573   C.3      778 ligands_prepared   0.0000
   2 C2     222.4227 161.3209 172.3953   C.2      778 ligands_prepared   0.0000
   3 C3     223.7244 161.6252 172.1052   C.2      778 ligands_prepared   0.0000
   4 C4     225.0001 161.3300 172.7706   C.2      778 ligands_prepared   0.0000
   5 O5     225.9216 162.1327 172.8172   O.2      778 ligands_prepared   0.0000
   6 N6     225.0944 160.0922 173.3489   N.am     778 ligands_prepared   0.0000
   7 C7     226.2860 159.7072 174.1077   C.3      778 ligands_prepared   0.0000
   8 C8     227.5416 159.7863 173.2013   C.3      778 ligands_prepared   0.0000
   9 C9     227.4975 158.7145 172.1023   C.3      778 ligands_prepared   0.0000
  10 C10    227.3719 157.3197 172.7319   C.3      778 ligands_prepared   0.0000
  11 N11    227.3688 157.4379 174.2492   N.4      778 ligands_prepared   1.0000
  12 C12    228.6645 158.1040 174.6665   C.3      778 ligands_prepared   0.0000
  13 C13    228.7647 159.5212 174.0890   C.3      778 ligands_prepared   0.0000
  14 C14    226.1292 158.2423 174.6295   C.3      778 ligands_prepared   0.0000
  15 C15    225.7685 158.1167 176.1144   C.3      778 ligands_prepared   0.0000
  16 C16    225.6510 156.7450 176.6840   C.ar     778 ligands_prepared   0.0000
  17 C17    226.3626 156.3707 177.8281   C.ar     778 ligands_prepared   0.0000
  18 C18    226.2220 155.0792 178.3280   C.ar     778 ligands_prepared   0.0000
  19 C19    225.3845 154.1842 177.6534   C.ar     778 ligands_prepared   0.0000
  20 N20    224.7297 154.5209 176.5246   N.ar     778 ligands_prepared   0.0000
  21 C21    224.8677 155.7716 176.0465   C.ar     778 ligands_prepared   0.0000
  22 O22    223.8525 162.3296 170.8967   O.3      778 ligands_prepared   0.0000
  23 C23    222.5681 162.4710 170.4292   C.ar     778 ligands_prepared   0.0000
  24 C24    222.1747 163.1269 169.2734   C.ar     778 ligands_prepared   0.0000
  25 Cl25   223.3358 163.8736 168.2824   Cl       778 ligands_prepared   0.0000
  26 C26    220.8258 163.1567 168.9560   C.ar     778 ligands_prepared   0.0000
  27 C27    219.8930 162.5304 169.7992   C.ar     778 ligands_prepared   0.0000
  28 C28    220.2792 161.8793 170.9660   C.ar     778 ligands_prepared   0.0000
  29 C29    221.6320 161.8557 171.2969   C.ar     778 ligands_prepared   0.0000
  30 H30    221.7384 159.5279 173.3283   H        778 ligands_prepared   0.0000
  31 H31    222.5849 160.6321 174.4211   H        778 ligands_prepared   0.0000
  32 H32    220.9244 160.9912 173.8936   H        778 ligands_prepared   0.0000
  33 H33    224.3116 159.4372 173.3416   H        778 ligands_prepared   0.0000
  34 H34    226.4086 160.4146 174.9735   H        778 ligands_prepared   0.0000
  35 H35    227.6097 160.8028 172.7428   H        778 ligands_prepared   0.0000
  36 H36    228.4171 158.7761 171.4824   H        778 ligands_prepared   0.0000
  37 H37    226.6717 158.8987 171.3874   H        778 ligands_prepared   0.0000
  38 H38    228.2085 156.6506 172.4262   H        778 ligands_prepared   0.0000
  39 H39    226.4385 156.8049 172.4076   H        778 ligands_prepared   0.0000
  40 H40    227.3106 156.4798 174.6853   H        778 ligands_prepared   0.0000
  41 H41    229.5108 157.4665 174.3079   H        778 ligands_prepared   0.0000
  42 H42    228.7459 158.1055 175.7721   H        778 ligands_prepared   0.0000
  43 H43    228.8478 160.2766 174.8935   H        778 ligands_prepared   0.0000
  44 H44    229.6979 159.6334 173.4985   H        778 ligands_prepared   0.0000
  45 H45    225.2713 157.7559 174.0641   H        778 ligands_prepared   0.0000
  46 H46    226.5449 158.6910 176.6899   H        778 ligands_prepared   0.0000
  47 H47    224.8294 158.6946 176.3085   H        778 ligands_prepared   0.0000
  48 H48    227.0258 157.0840 178.3269   H        778 ligands_prepared   0.0000
  49 H49    226.7560 154.7680 179.2267   H        778 ligands_prepared   0.0000
  50 H50    225.2328 153.1563 178.0132   H        778 ligands_prepared   0.0000
  51 H51    224.3343 155.9926 175.1082   H        778 ligands_prepared   0.0000
  52 H52    220.4745 163.6679 168.0522   H        778 ligands_prepared   0.0000
  53 H53    218.8335 162.5625 169.5230   H        778 ligands_prepared   0.0000
  54 H54    219.5405 161.3946 171.6088   H        778 ligands_prepared   0.0000
@<TRIPOS>BOND
   1  1  2    1
   2  1 30    1
   3  1 31    1
   4  1 32    1
   5  2  3    2
   6  2 29    1
   7  3  4    1
   8  3 22    1
   9  4  5    2
  10  4  6   am
  11  6  7    1
  12  6 33    1
  13  7  8    1
  14  7 14    1
  15  7 34    1
  16  8  9    1
  17  8 13    1
  18  8 35    1
  19  9 10    1
  20  9 36    1
  21  9 37    1
  22 10 11    1
  23 10 38    1
  24 10 39    1
  25 11 12    1
  26 11 14    1
  27 11 40    1
  28 12 13    1
  29 12 41    1
  30 12 42    1
  31 13 43    1
  32 13 44    1
  33 14 15    1
  34 14 45    1
  35 15 16    1
  36 15 46    1
  37 15 47    1
  38 16 17   ar
  39 16 21   ar
  40 17 18   ar
  41 17 48    1
  42 18 19   ar
  43 18 49    1
  44 19 20   ar
  45 19 50    1
  46 20 21   ar
  47 21 51    1
  48 22 23    1
  49 23 24   ar
  50 23 29   ar
  51 24 25    1
  52 24 26   ar
  53 26 27   ar
  54 26 52    1
  55 27 28   ar
  56 27 53    1
  57 28 29   ar
  58 28 54    1
