@<TRIPOS>MOLECULE
CHEMBL2178156_LIG
33 35 1 0 0
SMALL
USER_CHARGES

@<TRIPOS>ATOM
   1 N1     218.2020 153.9448 181.4011   N.1      778 ligands_prepared   0.0000
   2 C2     218.7616 153.7029 180.4151   C.1      778 ligands_prepared   0.0000
   3 C3     219.4454 153.4020 179.2129   C.ar     778 ligands_prepared   0.0000
   4 C4     220.8231 153.1154 179.2286   C.ar     778 ligands_prepared   0.0000
   5 N5     221.4969 152.8184 178.1039   N.ar     778 ligands_prepared   0.0000
   6 C6     220.8376 152.7975 176.9292   C.ar     778 ligands_prepared   0.0000
   7 C7     219.4618 153.0799 176.8263   C.ar     778 ligands_prepared   0.0000
   8 C8     218.7930 153.0503 175.5252   C.2      778 ligands_prepared   0.0000
   9 C9     219.4003 152.5490 174.4393   C.2      778 ligands_prepared   0.0000
  10 C10    218.7436 152.4911 173.0910   C.3      778 ligands_prepared   0.0000
  11 C11    218.1952 151.0661 172.8495   C.3      778 ligands_prepared   0.0000
  12 N12    216.6923 151.0047 173.0244   N.4      778 ligands_prepared   1.0000
  13 C13    216.2519 151.7564 174.2588   C.3      778 ligands_prepared   0.0000
  14 C14    216.6638 153.2466 174.2021   C.3      778 ligands_prepared   0.0000
  15 C15    217.4103 153.6274 175.4928   C.3      778 ligands_prepared   0.0000
  16 C16    217.5988 153.5111 173.0149   C.3      778 ligands_prepared   0.0000
  17 C17    218.7600 153.3848 177.9930   C.ar     778 ligands_prepared   0.0000
  18 H18    221.4072 153.1220 180.1637   H        778 ligands_prepared   0.0000
  19 H19    221.4347 152.5427 176.0412   H        778 ligands_prepared   0.0000
  20 H20    220.4145 152.1466 174.4727   H        778 ligands_prepared   0.0000
  21 H21    219.5035 152.7211 172.2984   H        778 ligands_prepared   0.0000
  22 H22    218.6696 150.3316 173.5404   H        778 ligands_prepared   0.0000
  23 H23    218.4342 150.7221 171.8158   H        778 ligands_prepared   0.0000
  24 H24    216.2233 151.4094 172.1824   H        778 ligands_prepared   0.0000
  25 H25    216.3828 150.0085 173.0818   H        778 ligands_prepared   0.0000
  26 H26    215.1445 151.6559 174.3523   H        778 ligands_prepared   0.0000
  27 H27    216.6865 151.2522 175.1528   H        778 ligands_prepared   0.0000
  28 H28    215.7458 153.8757 174.1077   H        778 ligands_prepared   0.0000
  29 H29    216.8256 153.3114 176.3840   H        778 ligands_prepared   0.0000
  30 H30    217.4675 154.7392 175.5664   H        778 ligands_prepared   0.0000
  31 H31    218.0004 154.5429 173.0664   H        778 ligands_prepared   0.0000
  32 H32    217.0699 153.4645 172.0480   H        778 ligands_prepared   0.0000
  33 H33    217.6869 153.6116 177.9558   H        778 ligands_prepared   0.0000
@<TRIPOS>BOND
   1  1  2    3
   2  2  3    1
   3  3  4   ar
   4  3 17   ar
   5  4  5   ar
   6  4 18    1
   7  5  6   ar
   8  6  7   ar
   9  6 19    1
  10  7  8    1
  11  7 17   ar
  12  8  9    2
  13  8 15    1
  14  9 10    1
  15  9 20    1
  16 10 11    1
  17 10 16    1
  18 10 21    1
  19 11 12    1
  20 11 22    1
  21 11 23    1
  22 12 13    1
  23 12 24    1
  24 12 25    1
  25 13 14    1
  26 13 26    1
  27 13 27    1
  28 14 15    1
  29 14 16    1
  30 14 28    1
  31 15 29    1
  32 15 30    1
  33 16 31    1
  34 16 32    1
  35 17 33    1
