@<TRIPOS>MOLECULE
CHEMBL2180256_LIG
54 58 1 0 0
SMALL
USER_CHARGES

@<TRIPOS>ATOM
   1 C1     225.0797 162.8016 172.0160   C.3      778 ligands_prepared   0.0000
   2 C2     225.4624 161.4225 171.7004   C.2      778 ligands_prepared   0.0000
   3 C3     225.7084 160.3824 172.5565   C.2      778 ligands_prepared   0.0000
   4 C4     225.6963 160.2178 174.0152   C.2      778 ligands_prepared   0.0000
   5 O5     225.4448 161.1346 174.7833   O.2      778 ligands_prepared   0.0000
   6 N6     225.9930 158.9585 174.4648   N.am     778 ligands_prepared   0.0000
   7 C7     226.0374 158.6531 175.8918   C.3      778 ligands_prepared   0.0000
   8 C8     227.1693 159.4603 176.5879   C.3      778 ligands_prepared   0.0000
   9 C9     228.5457 158.8913 176.2157   C.3      778 ligands_prepared   0.0000
  10 C10    228.6723 157.4526 176.7414   C.3      778 ligands_prepared   0.0000
  11 N11    227.3159 156.9705 177.2351   N.4      778 ligands_prepared   1.0000
  12 C12    226.9342 157.8061 178.4418   C.3      778 ligands_prepared   0.0000
  13 C13    226.9598 159.3024 178.0984   C.3      778 ligands_prepared   0.0000
  14 C14    226.3311 157.1327 176.0787   C.3      778 ligands_prepared   0.0000
  15 C15    225.0963 156.2383 176.2292   C.3      778 ligands_prepared   0.0000
  16 C16    225.3361 154.8103 176.5722   C.ar     778 ligands_prepared   0.0000
  17 C17    224.3551 154.0459 177.2099   C.ar     778 ligands_prepared   0.0000
  18 C18    224.6159 152.7108 177.5082   C.ar     778 ligands_prepared   0.0000
  19 C19    225.8664 152.1802 177.1740   C.ar     778 ligands_prepared   0.0000
  20 N20    226.8358 152.9217 176.6010   N.ar     778 ligands_prepared   0.0000
  21 C21    226.5804 154.2112 176.3167   C.ar     778 ligands_prepared   0.0000
  22 O22    226.0403 159.1978 171.8848   O.3      778 ligands_prepared   0.0000
  23 C23    226.0080 159.5337 170.5531   C.ar     778 ligands_prepared   0.0000
  24 C24    226.2841 158.6967 169.4763   C.ar     778 ligands_prepared   0.0000
  25 F25    226.6088 157.4344 169.6982   F        778 ligands_prepared   0.0000
  26 C26    226.2121 159.2125 168.1915   C.ar     778 ligands_prepared   0.0000
  27 C27    225.8594 160.5611 168.0032   C.ar     778 ligands_prepared   0.0000
  28 C28    225.5760 161.4045 169.0692   C.ar     778 ligands_prepared   0.0000
  29 C29    225.6542 160.8891 170.3623   C.ar     778 ligands_prepared   0.0000
  30 H30    224.5670 162.9039 172.9856   H        778 ligands_prepared   0.0000
  31 H31    225.9594 163.4724 172.0482   H        778 ligands_prepared   0.0000
  32 H32    224.4005 163.2342 171.2588   H        778 ligands_prepared   0.0000
  33 H33    226.1662 158.1869 173.8225   H        778 ligands_prepared   0.0000
  34 H34    225.0545 158.9282 176.3646   H        778 ligands_prepared   0.0000
  35 H35    227.1050 160.5355 176.2943   H        778 ligands_prepared   0.0000
  36 H36    229.3497 159.5257 176.6432   H        778 ligands_prepared   0.0000
  37 H37    228.7154 158.9294 175.1225   H        778 ligands_prepared   0.0000
  38 H38    229.4019 157.3826 177.5808   H        778 ligands_prepared   0.0000
  39 H39    229.0433 156.7547 175.9568   H        778 ligands_prepared   0.0000
  40 H40    227.3724 155.9558 177.5122   H        778 ligands_prepared   0.0000
  41 H41    227.6488 157.5713 179.2685   H        778 ligands_prepared   0.0000
  42 H42    225.9341 157.4950 178.8094   H        778 ligands_prepared   0.0000
  43 H43    227.7679 159.8220 178.6561   H        778 ligands_prepared   0.0000
  44 H44    226.0259 159.7988 178.4301   H        778 ligands_prepared   0.0000
  45 H45    226.8769 156.7550 175.1559   H        778 ligands_prepared   0.0000
  46 H46    224.4701 156.3170 175.3056   H        778 ligands_prepared   0.0000
  47 H47    224.4373 156.7061 177.0090   H        778 ligands_prepared   0.0000
  48 H48    223.3929 154.4915 177.4796   H        778 ligands_prepared   0.0000
  49 H49    223.8623 152.0921 177.9956   H        778 ligands_prepared   0.0000
  50 H50    226.1176 151.1296 177.3789   H        778 ligands_prepared   0.0000
  51 H51    227.4124 154.7838 175.8751   H        778 ligands_prepared   0.0000
  52 H52    226.4290 158.5840 167.3204   H        778 ligands_prepared   0.0000
  53 H53    225.8099 160.9512 166.9813   H        778 ligands_prepared   0.0000
  54 H54    225.3000 162.4482 168.9070   H        778 ligands_prepared   0.0000
@<TRIPOS>BOND
   1  1  2    1
   2  1 30    1
   3  1 31    1
   4  1 32    1
   5  2  3    2
   6  2 29    1
   7  3  4    1
   8  3 22    1
   9  4  5    2
  10  4  6   am
  11  6  7    1
  12  6 33    1
  13  7  8    1
  14  7 14    1
  15  7 34    1
  16  8  9    1
  17  8 13    1
  18  8 35    1
  19  9 10    1
  20  9 36    1
  21  9 37    1
  22 10 11    1
  23 10 38    1
  24 10 39    1
  25 11 12    1
  26 11 14    1
  27 11 40    1
  28 12 13    1
  29 12 41    1
  30 12 42    1
  31 13 43    1
  32 13 44    1
  33 14 15    1
  34 14 45    1
  35 15 16    1
  36 15 46    1
  37 15 47    1
  38 16 17   ar
  39 16 21   ar
  40 17 18   ar
  41 17 48    1
  42 18 19   ar
  43 18 49    1
  44 19 20   ar
  45 19 50    1
  46 20 21   ar
  47 21 51    1
  48 22 23    1
  49 23 24   ar
  50 23 29   ar
  51 24 25    1
  52 24 26   ar
  53 26 27   ar
  54 26 52    1
  55 27 28   ar
  56 27 53    1
  57 28 29   ar
  58 28 54    1
