@<TRIPOS>MOLECULE
CHEMBL2179871_LIG
52 55 1 0 0
SMALL
USER_CHARGES

@<TRIPOS>ATOM
   1 O1     224.4722 151.5937 176.8822   O.2      778 ligands_prepared   0.0000
   2 C2     223.7030 152.4954 177.1920   C.2      778 ligands_prepared   0.0000
   3 C3     224.1535 153.8904 177.3912   C.2      778 ligands_prepared   0.0000
   4 C4     225.2868 154.3883 176.8816   C.2      778 ligands_prepared   0.0000
   5 C5     225.7610 155.7558 177.0938   C.ar     778 ligands_prepared   0.0000
   6 C6     225.5435 156.7079 176.0882   C.ar     778 ligands_prepared   0.0000
   7 C7     226.0064 158.0123 176.2403   C.ar     778 ligands_prepared   0.0000
   8 C8     226.6886 158.3825 177.3988   C.ar     778 ligands_prepared   0.0000
   9 C9     226.9130 157.4414 178.4002   C.ar     778 ligands_prepared   0.0000
  10 C10    226.4520 156.1346 178.2507   C.ar     778 ligands_prepared   0.0000
  11 N11    222.3586 152.2445 177.3245   N.am     778 ligands_prepared   0.0000
  12 C12    221.4251 153.2770 177.7792   C.3      778 ligands_prepared   0.0000
  13 C13    221.5380 153.4599 179.3158   C.3      778 ligands_prepared   0.0000
  14 C14    221.0578 152.1985 180.0466   C.3      778 ligands_prepared   0.0000
  15 C15    219.6051 151.8934 179.6574   C.3      778 ligands_prepared   0.0000
  16 N16    219.0933 152.9474 178.6933   N.4      778 ligands_prepared   1.0000
  17 C17    219.1773 154.3057 179.3642   C.3      778 ligands_prepared   0.0000
  18 C18    220.6351 154.6371 179.7113   C.3      778 ligands_prepared   0.0000
  19 C19    219.9479 152.9028 177.4264   C.3      778 ligands_prepared   0.0000
  20 C20    219.3675 153.8469 176.3688   C.3      778 ligands_prepared   0.0000
  21 C21    218.5280 153.1317 175.3654   C.ar     778 ligands_prepared   0.0000
  22 C22    217.1500 153.3532 175.2851   C.ar     778 ligands_prepared   0.0000
  23 C23    216.4014 152.6459 174.3505   C.ar     778 ligands_prepared   0.0000
  24 C24    217.0525 151.7223 173.5230   C.ar     778 ligands_prepared   0.0000
  25 N25    218.3805 151.5019 173.5938   N.ar     778 ligands_prepared   0.0000
  26 C26    219.1031 152.1927 174.4969   C.ar     778 ligands_prepared   0.0000
  27 H27    223.4537 154.4805 177.9943   H        778 ligands_prepared   0.0000
  28 H28    225.9408 153.7674 176.2527   H        778 ligands_prepared   0.0000
  29 H29    225.0139 156.4243 175.1774   H        778 ligands_prepared   0.0000
  30 H30    225.8357 158.7450 175.4499   H        778 ligands_prepared   0.0000
  31 H31    227.0429 159.4090 177.5178   H        778 ligands_prepared   0.0000
  32 H32    227.4526 157.7256 179.3061   H        778 ligands_prepared   0.0000
  33 H33    226.6411 155.4018 179.0384   H        778 ligands_prepared   0.0000
  34 H34    221.9799 151.3146 177.1653   H        778 ligands_prepared   0.0000
  35 H35    221.6967 154.2458 177.2684   H        778 ligands_prepared   0.0000
  36 H36    222.5957 153.6845 179.5951   H        778 ligands_prepared   0.0000
  37 H37    221.7125 151.3313 179.8295   H        778 ligands_prepared   0.0000
  38 H38    221.1459 152.3403 181.1443   H        778 ligands_prepared   0.0000
  39 H39    219.5108 150.8911 179.1793   H        778 ligands_prepared   0.0000
  40 H40    218.9388 151.8755 180.5505   H        778 ligands_prepared   0.0000
  41 H41    218.0914 152.7466 178.4369   H        778 ligands_prepared   0.0000
  42 H42    218.5385 154.2849 180.2800   H        778 ligands_prepared   0.0000
  43 H43    218.7273 155.0754 178.6991   H        778 ligands_prepared   0.0000
  44 H44    220.9588 155.5727 179.2128   H        778 ligands_prepared   0.0000
  45 H45    220.7360 154.8487 180.7961   H        778 ligands_prepared   0.0000
  46 H46    219.9117 151.8438 177.0430   H        778 ligands_prepared   0.0000
  47 H47    218.8170 154.6899 176.8422   H        778 ligands_prepared   0.0000
  48 H48    220.2239 154.3568 175.8477   H        778 ligands_prepared   0.0000
  49 H49    216.6639 154.0706 175.9530   H        778 ligands_prepared   0.0000
  50 H50    215.3248 152.8015 174.2629   H        778 ligands_prepared   0.0000
  51 H51    216.5015 151.1292 172.7794   H        778 ligands_prepared   0.0000
  52 H52    220.1801 151.9704 174.5236   H        778 ligands_prepared   0.0000
@<TRIPOS>BOND
   1  1  2    2
   2  2  3    1
   3  2 11   am
   4  3  4    2
   5  3 27    1
   6  4  5    1
   7  4 28    1
   8  5  6   ar
   9  5 10   ar
  10  6  7   ar
  11  6 29    1
  12  7  8   ar
  13  7 30    1
  14  8  9   ar
  15  8 31    1
  16  9 10   ar
  17  9 32    1
  18 10 33    1
  19 11 12    1
  20 11 34    1
  21 12 13    1
  22 12 19    1
  23 12 35    1
  24 13 14    1
  25 13 18    1
  26 13 36    1
  27 14 15    1
  28 14 37    1
  29 14 38    1
  30 15 16    1
  31 15 39    1
  32 15 40    1
  33 16 17    1
  34 16 19    1
  35 16 41    1
  36 17 18    1
  37 17 42    1
  38 17 43    1
  39 18 44    1
  40 18 45    1
  41 19 20    1
  42 19 46    1
  43 20 21    1
  44 20 47    1
  45 20 48    1
  46 21 22   ar
  47 21 26   ar
  48 22 23   ar
  49 22 49    1
  50 23 24   ar
  51 23 50    1
  52 24 25   ar
  53 24 51    1
  54 25 26   ar
  55 26 52    1
