@<TRIPOS>MOLECULE
CHEMBL2381566_ncw_LIG
48 50 1 0 0
SMALL
USER_CHARGES

@<TRIPOS>ATOM
   1 C1     227.4653 156.3951 179.6756   C.3      778 ligands_prepared   0.0000
   2 N2     227.3589 156.4182 178.1851   N.4      778 ligands_prepared   1.0000
   3 C3     227.6496 157.8046 177.6235   C.3      778 ligands_prepared   0.0000
   4 C4     226.3505 158.1762 176.5380   C.3      778 ligands_prepared   0.0000
   5 C5     225.8289 156.7448 176.3420   C.3      778 ligands_prepared   0.0000
   6 C6     225.9509 156.0673 177.7120   C.3      778 ligands_prepared   0.0000
   7 C7     225.7764 154.5414 177.6537   C.3      778 ligands_prepared   0.0000
   8 O8     224.4225 154.2982 177.3055   O.3      778 ligands_prepared   0.0000
   9 C9     223.9331 153.0388 177.4837   C.2      778 ligands_prepared   0.0000
  10 O10    224.6724 152.0957 177.6558   O.2      778 ligands_prepared   0.0000
  11 C11    222.4746 153.0205 177.4231   C.ar     778 ligands_prepared   0.0000
  12 C12    221.7104 152.2084 178.2735   C.ar     778 ligands_prepared   0.0000
  13 C13    220.3292 152.2460 178.2094   C.ar     778 ligands_prepared   0.0000
  14 C14    219.7135 153.1123 177.2863   C.ar     778 ligands_prepared   0.0000
  15 O15    218.3648 153.0805 177.3495   O.3      778 ligands_prepared   0.0000
  16 C16    217.6173 153.7952 176.3626   C.3      778 ligands_prepared   0.0000
  17 C17    217.5179 153.0169 175.0900   C.ar     778 ligands_prepared   0.0000
  18 C18    218.6547 152.4021 174.5631   C.ar     778 ligands_prepared   0.0000
  19 C19    218.5693 151.6946 173.3670   C.ar     778 ligands_prepared   0.0000
  20 C20    217.3469 151.5913 172.7041   C.ar     778 ligands_prepared   0.0000
  21 C21    216.2105 152.1964 173.2373   C.ar     778 ligands_prepared   0.0000
  22 C22    216.2934 152.9126 174.4290   C.ar     778 ligands_prepared   0.0000
  23 C23    220.4648 153.9153 176.4218   C.ar     778 ligands_prepared   0.0000
  24 C24    221.8496 153.8628 176.4944   C.ar     778 ligands_prepared   0.0000
  25 H25    228.4931 156.6594 179.9951   H        778 ligands_prepared   0.0000
  26 H26    227.2438 155.3849 180.0722   H        778 ligands_prepared   0.0000
  27 H27    226.7674 157.1082 180.1530   H        778 ligands_prepared   0.0000
  28 H28    228.0491 155.7327 177.7752   H        778 ligands_prepared   0.0000
  29 H29    227.8360 158.5260 178.4506   H        778 ligands_prepared   0.0000
  30 H30    228.5831 157.7623 177.0173   H        778 ligands_prepared   0.0000
  31 H31    225.5608 158.8350 176.9514   H        778 ligands_prepared   0.0000
  32 H32    226.6394 158.6321 175.5714   H        778 ligands_prepared   0.0000
  33 H33    226.4146 156.2123 175.5649   H        778 ligands_prepared   0.0000
  34 H34    224.7823 156.7362 175.9825   H        778 ligands_prepared   0.0000
  35 H35    225.2025 156.5073 178.4286   H        778 ligands_prepared   0.0000
  36 H36    225.8671 154.0606 178.6511   H        778 ligands_prepared   0.0000
  37 H37    226.4793 154.0491 176.9525   H        778 ligands_prepared   0.0000
  38 H38    222.2059 151.5409 178.9861   H        778 ligands_prepared   0.0000
  39 H39    219.7157 151.6177 178.8560   H        778 ligands_prepared   0.0000
  40 H40    216.6309 153.8893 176.8752   H        778 ligands_prepared   0.0000
  41 H41    218.0434 154.8096 176.2352   H        778 ligands_prepared   0.0000
  42 H42    219.6090 152.4830 175.0855   H        778 ligands_prepared   0.0000
  43 H43    219.4601 151.2243 172.9495   H        778 ligands_prepared   0.0000
  44 H44    217.2805 151.0363 171.7673   H        778 ligands_prepared   0.0000
  45 H45    215.2545 152.1134 172.7187   H        778 ligands_prepared   0.0000
  46 H46    215.4034 153.3920 174.8407   H        778 ligands_prepared   0.0000
  47 H47    219.9814 154.5692 175.6956   H        778 ligands_prepared   0.0000
  48 H48    222.4572 154.4830 175.8263   H        778 ligands_prepared   0.0000
@<TRIPOS>BOND
   1  1  2    1
   2  1 25    1
   3  1 26    1
   4  1 27    1
   5  3  2    1
   6  2  6    1
   7  2 28    1
   8  3  4    1
   9  3 29    1
  10  3 30    1
  11  4  5    1
  12  4 31    1
  13  4 32    1
  14  5  6    1
  15  5 33    1
  16  5 34    1
  17  6  7    1
  18  6 35    1
  19  7  8    1
  20  7 36    1
  21  7 37    1
  22  8  9    1
  23  9 10    2
  24  9 11    1
  25 11 12   ar
  26 11 24   ar
  27 12 13   ar
  28 12 38    1
  29 13 14   ar
  30 13 39    1
  31 14 15    1
  32 14 23   ar
  33 15 16    1
  34 16 17    1
  35 16 40    1
  36 16 41    1
  37 17 18   ar
  38 17 22   ar
  39 18 19   ar
  40 18 42    1
  41 19 20   ar
  42 19 43    1
  43 20 21   ar
  44 20 44    1
  45 21 22   ar
  46 21 45    1
  47 22 46    1
  48 23 24   ar
  49 23 47    1
  50 24 48    1
