@<TRIPOS>MOLECULE
CHEMBL2179868_LIG
55 59 1 0 0
SMALL
USER_CHARGES

@<TRIPOS>ATOM
   1 O1     223.7454 151.9429 177.5000   O.2      778 ligands_prepared   0.0000
   2 C2     223.1384 152.9865 177.2933   C.2      778 ligands_prepared   0.0000
   3 N3     223.7838 154.1276 176.9029   N.am     778 ligands_prepared   0.0000
   4 C4     225.2315 154.1380 176.7065   C.3      778 ligands_prepared   0.0000
   5 C5     225.9635 153.7471 178.0168   C.3      778 ligands_prepared   0.0000
   6 C6     225.8814 154.8914 179.0377   C.3      778 ligands_prepared   0.0000
   7 C7     226.6309 156.1222 178.5040   C.3      778 ligands_prepared   0.0000
   8 N8     226.9845 155.9036 177.0405   N.4      778 ligands_prepared   1.0000
   9 C9     227.9941 154.7737 176.9791   C.3      778 ligands_prepared   0.0000
  10 C10    227.4346 153.5107 177.6493   C.3      778 ligands_prepared   0.0000
  11 C11    225.6887 155.5743 176.3017   C.3      778 ligands_prepared   0.0000
  12 C12    225.7888 155.8100 174.7923   C.3      778 ligands_prepared   0.0000
  13 C13    226.9314 156.6349 174.3092   C.ar     778 ligands_prepared   0.0000
  14 C14    228.2300 156.1183 174.2890   C.ar     778 ligands_prepared   0.0000
  15 C15    229.2753 156.9133 173.8277   C.ar     778 ligands_prepared   0.0000
  16 C16    228.9936 158.2193 173.4104   C.ar     778 ligands_prepared   0.0000
  17 N17    227.7512 158.7399 173.4615   N.ar     778 ligands_prepared   0.0000
  18 C18    226.7443 157.9674 173.9108   C.ar     778 ligands_prepared   0.0000
  19 C19    221.6840 153.1017 177.4500   C.2      778 ligands_prepared   0.0000
  20 C20    220.8330 153.3955 178.4826   C.2      778 ligands_prepared   0.0000
  21 C21    219.5068 153.3236 177.9424   C.2      778 ligands_prepared   0.0000
  22 C22    219.6406 152.9979 176.6117   C.2      778 ligands_prepared   0.0000
  23 C23    218.7303 152.7938 175.5115   C.ar     778 ligands_prepared   0.0000
  24 C24    219.1738 152.1945 174.3269   C.ar     778 ligands_prepared   0.0000
  25 C25    218.2842 151.9986 173.2743   C.ar     778 ligands_prepared   0.0000
  26 C26    216.9552 152.3998 173.3991   C.ar     778 ligands_prepared   0.0000
  27 C27    216.5140 153.0045 174.5756   C.ar     778 ligands_prepared   0.0000
  28 C28    217.3969 153.2021 175.6321   C.ar     778 ligands_prepared   0.0000
  29 O29    220.9789 152.8457 176.2855   O.3      778 ligands_prepared   0.0000
  30 H30    223.2792 154.9935 176.7016   H        778 ligands_prepared   0.0000
  31 H31    225.5029 153.4005 175.9014   H        778 ligands_prepared   0.0000
  32 H32    225.5148 152.8179 178.4435   H        778 ligands_prepared   0.0000
  33 H33    224.8289 155.1436 179.2730   H        778 ligands_prepared   0.0000
  34 H34    226.3160 154.5698 180.0069   H        778 ligands_prepared   0.0000
  35 H35    226.0289 157.0525 178.5981   H        778 ligands_prepared   0.0000
  36 H36    227.5685 156.3061 179.0754   H        778 ligands_prepared   0.0000
  37 H37    227.4060 156.7785 176.6344   H        778 ligands_prepared   0.0000
  38 H38    228.9314 155.1136 177.4838   H        778 ligands_prepared   0.0000
  39 H39    228.2764 154.5801 175.9235   H        778 ligands_prepared   0.0000
  40 H40    228.0202 153.2538 178.5573   H        778 ligands_prepared   0.0000
  41 H41    227.5448 152.6337 176.9805   H        778 ligands_prepared   0.0000
  42 H42    224.9191 156.3154 176.6882   H        778 ligands_prepared   0.0000
  43 H43    224.8208 156.2335 174.4250   H        778 ligands_prepared   0.0000
  44 H44    225.8230 154.8017 174.2999   H        778 ligands_prepared   0.0000
  45 H45    228.4230 155.0990 174.6333   H        778 ligands_prepared   0.0000
  46 H46    230.2953 156.5284 173.7947   H        778 ligands_prepared   0.0000
  47 H47    229.7811 158.8830 173.0246   H        778 ligands_prepared   0.0000
  48 H48    225.7527 158.4459 173.9572   H        778 ligands_prepared   0.0000
  49 H49    221.0800 153.6323 179.5039   H        778 ligands_prepared   0.0000
  50 H50    218.6029 153.5018 178.4924   H        778 ligands_prepared   0.0000
  51 H51    220.2145 151.8819 174.2223   H        778 ligands_prepared   0.0000
  52 H52    218.6315 151.5306 172.3509   H        778 ligands_prepared   0.0000
  53 H53    216.2587 152.2389 172.5744   H        778 ligands_prepared   0.0000
  54 H54    215.4739 153.3218 174.6689   H        778 ligands_prepared   0.0000
  55 H55    217.0496 153.6736 176.5532   H        778 ligands_prepared   0.0000
@<TRIPOS>BOND
   1  1  2    2
   2  2  3   am
   3  2 19    1
   4  3  4    1
   5  3 30    1
   6  4  5    1
   7  4 11    1
   8  4 31    1
   9  5  6    1
  10  5 10    1
  11  5 32    1
  12  6  7    1
  13  6 33    1
  14  6 34    1
  15  7  8    1
  16  7 35    1
  17  7 36    1
  18  8  9    1
  19  8 11    1
  20  8 37    1
  21  9 10    1
  22  9 38    1
  23  9 39    1
  24 10 40    1
  25 10 41    1
  26 11 12    1
  27 11 42    1
  28 12 13    1
  29 12 43    1
  30 12 44    1
  31 13 14   ar
  32 13 18   ar
  33 14 15   ar
  34 14 45    1
  35 15 16   ar
  36 15 46    1
  37 16 17   ar
  38 16 47    1
  39 17 18   ar
  40 18 48    1
  41 19 20    2
  42 19 29    1
  43 20 21    1
  44 20 49    1
  45 21 22    2
  46 21 50    1
  47 22 23    1
  48 22 29    1
  49 23 24   ar
  50 23 28   ar
  51 24 25   ar
  52 24 51    1
  53 25 26   ar
  54 25 52    1
  55 26 27   ar
  56 26 53    1
  57 27 28   ar
  58 27 54    1
  59 28 55    1
