@<TRIPOS>MOLECULE
CHEMBL2381567_nacw_LIG
47 49 1 0 0
SMALL
USER_CHARGES

@<TRIPOS>ATOM
   1 C1     219.3924 151.9039 173.8379   C.3      778 ligands_prepared   0.0000
   2 N2     218.0764 151.5677 174.4681   N.4      778 ligands_prepared   1.0000
   3 C3     217.0527 150.8503 173.4631   C.3      778 ligands_prepared   0.0000
   4 C4     216.1179 152.1972 172.9716   C.3      778 ligands_prepared   0.0000
   5 C5     216.0842 152.9463 174.3161   C.3      778 ligands_prepared   0.0000
   6 C6     217.5346 152.9586 174.8221   C.3      778 ligands_prepared   0.0000
   7 C7     217.6631 153.3411 176.2904   C.3      778 ligands_prepared   0.0000
   8 O8     219.0287 153.5583 176.6357   O.3      778 ligands_prepared   0.0000
   9 C9     219.4407 153.2197 177.8816   C.2      778 ligands_prepared   0.0000
  10 O10    218.6608 153.1649 178.8123   O.2      778 ligands_prepared   0.0000
  11 C11    220.8641 152.9296 177.9263   C.ar     778 ligands_prepared   0.0000
  12 C12    221.4409 152.1502 178.9463   C.ar     778 ligands_prepared   0.0000
  13 C13    222.7993 151.9021 178.9211   C.ar     778 ligands_prepared   0.0000
  14 C14    223.5429 152.4593 177.8559   C.ar     778 ligands_prepared   0.0000
  15 O15    224.8510 152.1971 177.8511   O.3      778 ligands_prepared   0.0000
  16 C16    225.6256 152.6231 176.7000   C.3      778 ligands_prepared   0.0000
  17 C17    225.7697 154.0919 176.9403   C.ar     778 ligands_prepared   0.0000
  18 C18    226.3959 154.5489 178.1001   C.ar     778 ligands_prepared   0.0000
  19 C19    226.5430 155.9177 178.3142   C.ar     778 ligands_prepared   0.0000
  20 C20    226.0664 156.8264 177.3707   C.ar     778 ligands_prepared   0.0000
  21 C21    225.4414 156.3684 176.2117   C.ar     778 ligands_prepared   0.0000
  22 C22    225.2933 155.0005 175.9937   C.ar     778 ligands_prepared   0.0000
  23 N23    223.0047 153.2212 176.8679   N.ar     778 ligands_prepared   0.0000
  24 C24    221.6805 153.4487 176.9064   C.ar     778 ligands_prepared   0.0000
  25 H25    219.9943 150.9908 173.6653   H        778 ligands_prepared   0.0000
  26 H26    219.2662 152.4338 172.8779   H        778 ligands_prepared   0.0000
  27 H27    219.9871 152.5544 174.5098   H        778 ligands_prepared   0.0000
  28 H28    218.2496 150.9428 175.2969   H        778 ligands_prepared   0.0000
  29 H29    217.5935 150.2936 172.6646   H        778 ligands_prepared   0.0000
  30 H30    216.3309 150.1355 173.9109   H        778 ligands_prepared   0.0000
  31 H31    216.5698 152.8138 172.1728   H        778 ligands_prepared   0.0000
  32 H32    215.0949 151.9633 172.6219   H        778 ligands_prepared   0.0000
  33 H33    215.3993 152.4530 175.0327   H        778 ligands_prepared   0.0000
  34 H34    215.6962 153.9762 174.2007   H        778 ligands_prepared   0.0000
  35 H35    218.1404 153.6924 174.2087   H        778 ligands_prepared   0.0000
  36 H36    217.2336 154.3525 176.4870   H        778 ligands_prepared   0.0000
  37 H37    217.2106 152.6256 177.0025   H        778 ligands_prepared   0.0000
  38 H38    220.8130 151.7419 179.7479   H        778 ligands_prepared   0.0000
  39 H39    223.2918 151.3018 179.6863   H        778 ligands_prepared   0.0000
  40 H40    226.5895 152.0789 176.6858   H        778 ligands_prepared   0.0000
  41 H41    225.0566 152.3724 175.7837   H        778 ligands_prepared   0.0000
  42 H42    226.7709 153.8371 178.8374   H        778 ligands_prepared   0.0000
  43 H43    227.0301 156.2760 179.2212   H        778 ligands_prepared   0.0000
  44 H44    226.1834 157.8979 177.5397   H        778 ligands_prepared   0.0000
  45 H45    225.0676 157.0796 175.4742   H        778 ligands_prepared   0.0000
  46 H46    224.8067 154.6404 175.0862   H        778 ligands_prepared   0.0000
  47 H47    221.2654 154.0700 176.0931   H        778 ligands_prepared   0.0000
@<TRIPOS>BOND
   1  1  2    1
   2  1 25    1
   3  1 26    1
   4  1 27    1
   5  2  3    1
   6  2  6    1
   7  2 28    1
   8  3  4    1
   9  3 29    1
  10  3 30    1
  11  4  5    1
  12  4 31    1
  13  4 32    1
  14  5  6    1
  15  5 33    1
  16  5 34    1
  17  6  7    1
  18  6 35    1
  19  7  8    1
  20  7 36    1
  21  7 37    1
  22  8  9    1
  23  9 10    2
  24  9 11    1
  25 11 12   ar
  26 11 24   ar
  27 12 13   ar
  28 12 38    1
  29 13 14   ar
  30 13 39    1
  31 14 15    1
  32 14 23   ar
  33 15 16    1
  34 16 17    1
  35 16 40    1
  36 16 41    1
  37 17 18   ar
  38 17 22   ar
  39 18 19   ar
  40 18 42    1
  41 19 20   ar
  42 19 43    1
  43 20 21   ar
  44 20 44    1
  45 21 22   ar
  46 21 45    1
  47 22 46    1
  48 23 24   ar
  49 24 47    1
