@<TRIPOS>MOLECULE
CHEMBL2179844_LIG
52 55 1 0 0
SMALL
USER_CHARGES

@<TRIPOS>ATOM
   1 C1     226.5087 157.8210 175.6404   C.3      778 ligands_prepared   0.0000
   2 O2     226.1735 157.1909 176.8728   O.3      778 ligands_prepared   0.0000
   3 C3     225.6674 155.9364 176.8266   C.ar     778 ligands_prepared   0.0000
   4 C4     225.6238 155.1239 175.6917   C.ar     778 ligands_prepared   0.0000
   5 C5     225.0807 153.8483 175.8053   C.ar     778 ligands_prepared   0.0000
   6 C6     224.5837 153.4023 177.0325   C.ar     778 ligands_prepared   0.0000
   7 C7     224.0452 152.0285 177.1118   C.2      778 ligands_prepared   0.0000
   8 O8     224.7129 151.0398 176.8324   O.2      778 ligands_prepared   0.0000
   9 N9     222.7377 151.8863 177.5136   N.am     778 ligands_prepared   0.0000
  10 C10    221.9166 153.0609 177.7866   C.3      778 ligands_prepared   0.0000
  11 C11    221.8140 153.3383 179.3091   C.3      778 ligands_prepared   0.0000
  12 C12    221.2110 154.7416 179.4630   C.3      778 ligands_prepared   0.0000
  13 C13    219.8790 154.7981 178.6997   C.3      778 ligands_prepared   0.0000
  14 N14    219.4744 153.4149 178.2271   N.4      778 ligands_prepared   1.0000
  15 C15    219.4485 152.4974 179.4414   C.3      778 ligands_prepared   0.0000
  16 C16    220.8758 152.3259 179.9833   C.3      778 ligands_prepared   0.0000
  17 C17    220.4737 152.8212 177.2381   C.3      778 ligands_prepared   0.0000
  18 C18    220.2540 153.3042 175.8014   C.3      778 ligands_prepared   0.0000
  19 C19    219.0612 152.7658 175.0917   C.ar     778 ligands_prepared   0.0000
  20 C20    217.7627 153.0991 175.4846   C.ar     778 ligands_prepared   0.0000
  21 C21    216.6806 152.5576 174.7983   C.ar     778 ligands_prepared   0.0000
  22 C22    216.9293 151.7130 173.7107   C.ar     778 ligands_prepared   0.0000
  23 N23    218.1779 151.4202 173.2958   N.ar     778 ligands_prepared   0.0000
  24 C24    219.2228 151.9373 173.9690   C.ar     778 ligands_prepared   0.0000
  25 C25    224.6343 154.2266 178.1628   C.ar     778 ligands_prepared   0.0000
  26 C26    225.1751 155.4974 178.0689   C.ar     778 ligands_prepared   0.0000
  27 H27    225.6169 157.9648 175.0204   H        778 ligands_prepared   0.0000
  28 H28    226.9054 158.7917 175.9744   H        778 ligands_prepared   0.0000
  29 H29    227.2786 157.2573 175.1042   H        778 ligands_prepared   0.0000
  30 H30    226.0060 155.4676 174.7317   H        778 ligands_prepared   0.0000
  31 H31    225.0425 153.1892 174.9312   H        778 ligands_prepared   0.0000
  32 H32    222.2977 150.9754 177.6051   H        778 ligands_prepared   0.0000
  33 H33    222.3794 153.9552 177.2820   H        778 ligands_prepared   0.0000
  34 H34    222.8269 153.2965 179.7735   H        778 ligands_prepared   0.0000
  35 H35    221.0616 154.9802 180.5368   H        778 ligands_prepared   0.0000
  36 H36    221.9093 155.5197 179.0960   H        778 ligands_prepared   0.0000
  37 H37    219.9444 155.4858 177.8315   H        778 ligands_prepared   0.0000
  38 H38    219.0626 155.1997 179.3469   H        778 ligands_prepared   0.0000
  39 H39    218.5209 153.4595 177.7826   H        778 ligands_prepared   0.0000
  40 H40    218.9972 151.5220 179.1490   H        778 ligands_prepared   0.0000
  41 H41    218.7675 152.9363 180.2059   H        778 ligands_prepared   0.0000
  42 H42    221.2350 151.2894 179.8342   H        778 ligands_prepared   0.0000
  43 H43    220.8873 152.4686 181.0834   H        778 ligands_prepared   0.0000
  44 H44    220.2767 151.7029 177.2297   H        778 ligands_prepared   0.0000
  45 H45    221.1836 153.1185 175.2070   H        778 ligands_prepared   0.0000
  46 H46    220.1916 154.4256 175.8363   H        778 ligands_prepared   0.0000
  47 H47    217.5984 153.7874 176.3218   H        778 ligands_prepared   0.0000
  48 H48    215.6574 152.7880 175.0989   H        778 ligands_prepared   0.0000
  49 H49    216.1113 151.2560 173.1363   H        778 ligands_prepared   0.0000
  50 H50    220.2200 151.6782 173.5871   H        778 ligands_prepared   0.0000
  51 H51    224.2583 153.8669 179.1250   H        778 ligands_prepared   0.0000
  52 H52    225.2231 156.1524 178.9381   H        778 ligands_prepared   0.0000
@<TRIPOS>BOND
   1  1  2    1
   2  1 27    1
   3  1 28    1
   4  1 29    1
   5  2  3    1
   6  3  4   ar
   7  3 26   ar
   8  4  5   ar
   9  4 30    1
  10  5  6   ar
  11  5 31    1
  12  6  7    1
  13  6 25   ar
  14  7  8    2
  15  7  9   am
  16  9 10    1
  17  9 32    1
  18 10 11    1
  19 10 17    1
  20 10 33    1
  21 11 12    1
  22 11 16    1
  23 11 34    1
  24 12 13    1
  25 12 35    1
  26 12 36    1
  27 13 14    1
  28 13 37    1
  29 13 38    1
  30 14 15    1
  31 14 17    1
  32 14 39    1
  33 15 16    1
  34 15 40    1
  35 15 41    1
  36 16 42    1
  37 16 43    1
  38 17 18    1
  39 17 44    1
  40 18 19    1
  41 18 45    1
  42 18 46    1
  43 19 20   ar
  44 19 24   ar
  45 20 21   ar
  46 20 47    1
  47 21 22   ar
  48 21 48    1
  49 22 23   ar
  50 22 49    1
  51 23 24   ar
  52 24 50    1
  53 25 26   ar
  54 25 51    1
  55 26 52    1
