@<TRIPOS>MOLECULE
CHEMBL2381570_ncw_LIG
36 37 1 0 0
SMALL
USER_CHARGES

@<TRIPOS>ATOM
   1 C1     217.3560 149.8700 174.2135   C.3      778 ligands_prepared   0.0000
   2 N2     217.0649 151.2950 174.5569   N.4      778 ligands_prepared   1.0000
   3 C3     215.9026 152.0651 173.5810   C.3      778 ligands_prepared   0.0000
   4 C4     216.6565 152.6126 172.3686   C.3      778 ligands_prepared   0.0000
   5 C5     218.1489 152.4851 172.7085   C.3      778 ligands_prepared   0.0000
   6 C6     218.2467 152.2075 174.2180   C.3      778 ligands_prepared   0.0000
   7 C7     218.1922 153.4749 175.0830   C.3      778 ligands_prepared   0.0000
   8 O8     218.4162 153.1003 176.4343   O.3      778 ligands_prepared   0.0000
   9 C9     219.6760 152.7217 176.7780   C.2      778 ligands_prepared   0.0000
  10 O10    220.4163 152.2025 175.9748   O.2      778 ligands_prepared   0.0000
  11 C11    219.9650 153.0540 178.1827   C.ar     778 ligands_prepared   0.0000
  12 C12    221.2997 153.0685 178.5875   C.ar     778 ligands_prepared   0.0000
  13 C13    221.6067 153.4063 179.9057   C.ar     778 ligands_prepared   0.0000
  14 C14    220.6000 153.7211 180.8065   C.ar     778 ligands_prepared   0.0000
  15 C15    219.2514 153.6915 180.3968   C.ar     778 ligands_prepared   0.0000
  16 N16    218.2289 153.8851 181.3318   N.pl3    778 ligands_prepared   0.0000
  17 C17    218.9349 153.3619 179.0668   C.ar     778 ligands_prepared   0.0000
  18 H18    216.4819 149.2302 174.4458   H        778 ligands_prepared   0.0000
  19 H19    217.5930 149.7374 173.1407   H        778 ligands_prepared   0.0000
  20 H20    218.2161 149.4911 174.8006   H        778 ligands_prepared   0.0000
  21 H21    216.8453 151.3701 175.5870   H        778 ligands_prepared   0.0000
  22 H22    215.4948 152.8647 174.2387   H        778 ligands_prepared   0.0000
  23 H23    215.0485 151.4199 173.2795   H        778 ligands_prepared   0.0000
  24 H24    216.3961 152.0562 171.4479   H        778 ligands_prepared   0.0000
  25 H25    216.3819 153.6665 172.1642   H        778 ligands_prepared   0.0000
  26 H26    218.6187 151.6612 172.1331   H        778 ligands_prepared   0.0000
  27 H27    218.7073 153.3937 172.4113   H        778 ligands_prepared   0.0000
  28 H28    219.2011 151.6504 174.4348   H        778 ligands_prepared   0.0000
  29 H29    219.0304 154.1793 174.8891   H        778 ligands_prepared   0.0000
  30 H30    217.2384 154.0315 174.9819   H        778 ligands_prepared   0.0000
  31 H31    222.0937 152.8233 177.8798   H        778 ligands_prepared   0.0000
  32 H32    222.6533 153.4246 180.2265   H        778 ligands_prepared   0.0000
  33 H33    220.8467 153.9922 181.8344   H        778 ligands_prepared   0.0000
  34 H34    217.2958 153.6233 181.0346   H        778 ligands_prepared   0.0000
  35 H35    218.4178 153.5713 182.2761   H        778 ligands_prepared   0.0000
  36 H36    217.8930 153.3570 178.7403   H        778 ligands_prepared   0.0000
@<TRIPOS>BOND
   1  1  2    1
   2  1 18    1
   3  1 19    1
   4  1 20    1
   5  3  2    1
   6  2  6    1
   7  2 21    1
   8  3  4    1
   9  3 22    1
  10  3 23    1
  11  4  5    1
  12  4 24    1
  13  4 25    1
  14  5  6    1
  15  5 26    1
  16  5 27    1
  17  6  7    1
  18  6 28    1
  19  7  8    1
  20  7 29    1
  21  7 30    1
  22  8  9    1
  23  9 10    2
  24  9 11    1
  25 11 12   ar
  26 11 17   ar
  27 12 13   ar
  28 12 31    1
  29 13 14   ar
  30 13 32    1
  31 14 15   ar
  32 14 33    1
  33 15 16    1
  34 15 17   ar
  35 16 34    1
  36 16 35    1
  37 17 36    1
