@<TRIPOS>MOLECULE
CHEMBL2179859_LIG
53 57 1 0 0
SMALL
USER_CHARGES

@<TRIPOS>ATOM
   1 O1     224.9010 151.2464 177.0268   O.2      778 ligands_prepared   0.0000
   2 C2     224.1378 152.1853 177.2116   C.2      778 ligands_prepared   0.0000
   3 N3     222.8283 152.0204 177.5575   N.am     778 ligands_prepared   0.0000
   4 C4     221.9418 153.1713 177.7242   C.3      778 ligands_prepared   0.0000
   5 C5     221.8318 153.5908 179.2129   C.3      778 ligands_prepared   0.0000
   6 C6     220.9812 154.8698 179.2620   C.3      778 ligands_prepared   0.0000
   7 C7     219.5759 154.5738 178.7187   C.3      778 ligands_prepared   0.0000
   8 N8     219.4767 153.1257 178.2802   N.4      778 ligands_prepared   1.0000
   9 C9     219.7350 152.2263 179.4756   C.3      778 ligands_prepared   0.0000
  10 C10    221.1390 152.4967 180.0369   C.3      778 ligands_prepared   0.0000
  11 C11    220.5109 152.8028 177.2028   C.3      778 ligands_prepared   0.0000
  12 C12    220.1817 153.5451 175.9046   C.3      778 ligands_prepared   0.0000
  13 C13    219.0592 152.9044 175.1585   C.ar     778 ligands_prepared   0.0000
  14 C14    217.7273 153.1231 175.5219   C.ar     778 ligands_prepared   0.0000
  15 C15    216.7113 152.5201 174.7874   C.ar     778 ligands_prepared   0.0000
  16 C16    217.0561 151.7004 173.7045   C.ar     778 ligands_prepared   0.0000
  17 N17    218.3380 151.4629 173.3627   N.ar     778 ligands_prepared   0.0000
  18 C18    219.3186 152.0495 174.0754   C.ar     778 ligands_prepared   0.0000
  19 C19    224.6239 153.6094 177.1244   C.ar     778 ligands_prepared   0.0000
  20 C20    224.1192 154.4235 176.0774   C.ar     778 ligands_prepared   0.0000
  21 C21    224.5631 155.7203 175.9975   C.ar     778 ligands_prepared   0.0000
  22 C22    225.4900 156.2010 176.9590   C.ar     778 ligands_prepared   0.0000
  23 C23    226.0007 157.5274 176.9195   C.ar     778 ligands_prepared   0.0000
  24 C24    226.8624 157.9607 177.8901   C.ar     778 ligands_prepared   0.0000
  25 C25    227.2618 157.0931 178.9421   C.ar     778 ligands_prepared   0.0000
  26 C26    226.8041 155.8028 179.0013   C.ar     778 ligands_prepared   0.0000
  27 C27    225.9118 155.3277 177.9952   C.ar     778 ligands_prepared   0.0000
  28 N28    225.4738 154.0235 178.0512   N.ar     778 ligands_prepared   0.0000
  29 H29    222.4250 151.0912 177.7127   H        778 ligands_prepared   0.0000
  30 H30    222.3546 154.0384 177.1312   H        778 ligands_prepared   0.0000
  31 H31    222.8505 153.7915 179.6241   H        778 ligands_prepared   0.0000
  32 H32    221.4565 155.6886 178.6858   H        778 ligands_prepared   0.0000
  33 H33    220.9228 155.2464 180.3041   H        778 ligands_prepared   0.0000
  34 H34    218.7940 154.7627 179.4940   H        778 ligands_prepared   0.0000
  35 H35    219.3152 155.2353 177.8623   H        778 ligands_prepared   0.0000
  36 H36    218.5136 152.9453 177.8960   H        778 ligands_prepared   0.0000
  37 H37    218.9453 152.4092 180.2400   H        778 ligands_prepared   0.0000
  38 H38    219.6096 151.1642 179.1609   H        778 ligands_prepared   0.0000
  39 H39    221.0763 152.8086 181.1005   H        778 ligands_prepared   0.0000
  40 H40    221.7384 151.5647 180.0560   H        778 ligands_prepared   0.0000
  41 H41    220.4493 151.6917 177.0211   H        778 ligands_prepared   0.0000
  42 H42    219.9779 154.6230 176.1030   H        778 ligands_prepared   0.0000
  43 H43    221.1007 153.5670 175.2607   H        778 ligands_prepared   0.0000
  44 H44    217.4831 153.7586 176.3783   H        778 ligands_prepared   0.0000
  45 H45    215.6644 152.6774 175.0497   H        778 ligands_prepared   0.0000
  46 H46    216.2897 151.2107 173.0862   H        778 ligands_prepared   0.0000
  47 H47    220.3464 151.8167 173.7611   H        778 ligands_prepared   0.0000
  48 H48    223.3952 154.0172 175.3664   H        778 ligands_prepared   0.0000
  49 H49    224.2092 156.3942 175.2082   H        778 ligands_prepared   0.0000
  50 H50    225.6912 158.1803 176.0976   H        778 ligands_prepared   0.0000
  51 H51    227.2535 158.9825 177.8722   H        778 ligands_prepared   0.0000
  52 H52    227.9449 157.4781 179.7051   H        778 ligands_prepared   0.0000
  53 H53    227.1074 155.1252 179.8030   H        778 ligands_prepared   0.0000
@<TRIPOS>BOND
   1  1  2    2
   2  2  3   am
   3  2 19    1
   4  3  4    1
   5  3 29    1
   6  4  5    1
   7  4 11    1
   8  4 30    1
   9  5  6    1
  10  5 10    1
  11  5 31    1
  12  6  7    1
  13  6 32    1
  14  6 33    1
  15  7  8    1
  16  7 34    1
  17  7 35    1
  18  8  9    1
  19  8 11    1
  20  8 36    1
  21  9 10    1
  22  9 37    1
  23  9 38    1
  24 10 39    1
  25 10 40    1
  26 11 12    1
  27 11 41    1
  28 12 13    1
  29 12 42    1
  30 12 43    1
  31 13 14   ar
  32 13 18   ar
  33 14 15   ar
  34 14 44    1
  35 15 16   ar
  36 15 45    1
  37 16 17   ar
  38 16 46    1
  39 17 18   ar
  40 18 47    1
  41 19 20   ar
  42 19 28   ar
  43 20 21   ar
  44 20 48    1
  45 21 22   ar
  46 21 49    1
  47 22 23   ar
  48 22 27   ar
  49 23 24   ar
  50 23 50    1
  51 24 25   ar
  52 24 51    1
  53 25 26   ar
  54 25 52    1
  55 26 27   ar
  56 26 53    1
  57 27 28   ar
