@<TRIPOS>MOLECULE
CHEMBL3094071_LIG
39 41 1 0 0
SMALL
USER_CHARGES

@<TRIPOS>ATOM
   1 O1     220.6274 152.1023 176.4738   O.2      778 ligands_prepared   0.0000
   2 C2     219.6400 152.8201 176.3591   C.2      778 ligands_prepared   0.0000
   3 C3     219.1120 153.6602 177.5026   C.3      778 ligands_prepared   0.0000
   4 C4     218.8086 152.8006 179.0294   C.3      778 ligands_prepared   0.0000
   5 C5     220.0953 153.1579 180.0232   C.3      778 ligands_prepared   0.0000
   6 C6     221.0892 153.6987 178.9826   C.3      778 ligands_prepared   0.0000
   7 C7     220.2503 154.5662 178.0302   C.3      778 ligands_prepared   0.0000
   8 N8     218.9827 152.8157 175.1476   N.am     778 ligands_prepared   0.0000
   9 C9     217.8997 153.7643 174.8321   C.3      778 ligands_prepared   0.0000
  10 C10    216.8901 153.1670 173.8280   C.3      778 ligands_prepared   0.0000
  11 C11    216.0997 151.9856 174.4125   C.3      778 ligands_prepared   0.0000
  12 N12    216.9945 150.8042 174.7160   N.4      778 ligands_prepared   1.0000
  13 C13    217.8357 150.4215 173.5177   C.3      778 ligands_prepared   0.0000
  14 C14    218.6218 151.6236 172.9728   C.3      778 ligands_prepared   0.0000
  15 C15    217.6421 152.7299 172.5683   C.3      778 ligands_prepared   0.0000
  16 C16    219.6423 152.1752 173.9902   C.3      778 ligands_prepared   0.0000
  17 H17    218.2514 154.2884 177.1666   H        778 ligands_prepared   0.0000
  18 H18    217.8263 153.1746 179.3656   H        778 ligands_prepared   0.0000
  19 H19    218.7085 151.7008 178.9851   H        778 ligands_prepared   0.0000
  20 H20    220.5007 152.2965 180.5772   H        778 ligands_prepared   0.0000
  21 H21    219.8653 153.9313 180.7757   H        778 ligands_prepared   0.0000
  22 H22    221.9030 154.2756 179.4537   H        778 ligands_prepared   0.0000
  23 H23    221.5711 152.8712 178.4317   H        778 ligands_prepared   0.0000
  24 H24    220.8646 154.9826 177.2142   H        778 ligands_prepared   0.0000
  25 H25    219.8257 155.4372 178.5635   H        778 ligands_prepared   0.0000
  26 H26    217.3639 154.0556 175.7655   H        778 ligands_prepared   0.0000
  27 H27    218.3344 154.7027 174.4090   H        778 ligands_prepared   0.0000
  28 H28    216.1507 153.9725 173.5699   H        778 ligands_prepared   0.0000
  29 H29    215.2987 151.6655 173.7057   H        778 ligands_prepared   0.0000
  30 H30    215.5809 152.2806 175.3564   H        778 ligands_prepared   0.0000
  31 H31    216.4241 149.9881 175.0318   H        778 ligands_prepared   0.0000
  32 H32    217.6308 151.0604 175.5042   H        778 ligands_prepared   0.0000
  33 H33    217.1732 150.0001 172.7263   H        778 ligands_prepared   0.0000
  34 H34    218.5230 149.5966 173.8245   H        778 ligands_prepared   0.0000
  35 H35    219.1936 151.2788 172.0701   H        778 ligands_prepared   0.0000
  36 H36    218.1830 153.5890 172.1211   H        778 ligands_prepared   0.0000
  37 H37    216.9426 152.3794 171.7832   H        778 ligands_prepared   0.0000
  38 H38    220.3024 151.3500 174.3531   H        778 ligands_prepared   0.0000
  39 H39    220.3103 152.9153 173.4875   H        778 ligands_prepared   0.0000
@<TRIPOS>BOND
   1  1  2    2
   2  2  3    1
   3  2  8   am
   4  4  3    1
   5  3  7    1
   6  3 17    1
   7  4  5    1
   8  4 18    1
   9  4 19    1
  10  5  6    1
  11  5 20    1
  12  5 21    1
  13  6  7    1
  14  6 22    1
  15  6 23    1
  16  7 24    1
  17  7 25    1
  18  9  8    1
  19  8 16    1
  20  9 10    1
  21  9 26    1
  22  9 27    1
  23 10 11    1
  24 10 15    1
  25 10 28    1
  26 11 12    1
  27 11 29    1
  28 11 30    1
  29 12 13    1
  30 12 31    1
  31 12 32    1
  32 13 14    1
  33 13 33    1
  34 13 34    1
  35 14 15    1
  36 14 16    1
  37 14 35    1
  38 15 36    1
  39 15 37    1
  40 16 38    1
  41 16 39    1
