@<TRIPOS>MOLECULE
CHEMBL3037929_LIG
28 29 1 0 0
SMALL
USER_CHARGES

@<TRIPOS>ATOM
   1 C1     219.4886 153.2231 179.2927   C.3      778 ligands_prepared   0.0000
   2 O2     218.9114 153.1113 177.9917   O.3      778 ligands_prepared   0.0000
   3 C3     219.7238 152.7459 176.9821   C.2      778 ligands_prepared   0.0000
   4 O4     220.6834 152.0305 177.1697   O.2      778 ligands_prepared   0.0000
   5 C5     219.2400 153.3449 175.6883   C.3      778 ligands_prepared   0.0000
   6 C6     219.6891 152.5033 174.5367   C.3      778 ligands_prepared   0.0000
   7 C7     218.4920 152.3296 173.5873   C.3      778 ligands_prepared   0.0000
   8 C8     218.2146 150.8618 173.2261   C.3      778 ligands_prepared   0.0000
   9 N9     217.1952 150.3906 174.2425   N.4      778 ligands_prepared   1.0000
  10 C10    216.3118 151.5950 174.4990   C.3      778 ligands_prepared   0.0000
  11 C11    217.2246 152.8240 174.3456   C.3      778 ligands_prepared   0.0000
  12 C12    217.7014 153.4005 175.6867   C.3      778 ligands_prepared   0.0000
  13 H13    220.2676 153.9934 179.2983   H        778 ligands_prepared   0.0000
  14 H14    219.8979 152.2576 179.6102   H        778 ligands_prepared   0.0000
  15 H15    218.6309 153.5151 179.9152   H        778 ligands_prepared   0.0000
  16 H16    219.6628 154.3779 175.5742   H        778 ligands_prepared   0.0000
  17 H17    220.5240 153.0088 174.0107   H        778 ligands_prepared   0.0000
  18 H18    220.1071 151.5339 174.8628   H        778 ligands_prepared   0.0000
  19 H19    218.6529 152.9216 172.6589   H        778 ligands_prepared   0.0000
  20 H20    217.7939 150.7635 172.2002   H        778 ligands_prepared   0.0000
  21 H21    219.1185 150.2180 173.2605   H        778 ligands_prepared   0.0000
  22 H22    216.6572 149.5664 173.9137   H        778 ligands_prepared   0.0000
  23 H23    217.6869 150.1283 175.1293   H        778 ligands_prepared   0.0000
  24 H24    215.4785 151.6092 173.7611   H        778 ligands_prepared   0.0000
  25 H25    215.8424 151.5147 175.5022   H        778 ligands_prepared   0.0000
  26 H26    216.6953 153.6103 173.7613   H        778 ligands_prepared   0.0000
  27 H27    217.2570 152.8770 176.5519   H        778 ligands_prepared   0.0000
  28 H28    217.3659 154.4526 175.7914   H        778 ligands_prepared   0.0000
@<TRIPOS>BOND
   1  1  2    1
   2  1 13    1
   3  1 14    1
   4  1 15    1
   5  2  3    1
   6  3  4    2
   7  3  5    1
   8  6  5    1
   9  5 12    1
  10  5 16    1
  11  6  7    1
  12  6 17    1
  13  6 18    1
  14  7  8    1
  15  7 11    1
  16  7 19    1
  17  8  9    1
  18  8 20    1
  19  8 21    1
  20  9 10    1
  21  9 22    1
  22  9 23    1
  23 10 11    1
  24 10 24    1
  25 10 25    1
  26 11 12    1
  27 11 26    1
  28 12 27    1
  29 12 28    1
