@<TRIPOS>MOLECULE
CHEMBL2261111_LIG
39 39 1 0 0
SMALL
USER_CHARGES

@<TRIPOS>ATOM
   1 C1     216.2519 154.2540 174.9181   C.3      778 ligands_prepared   0.0000
   2 C2     216.8151 153.2059 173.9677   C.3      778 ligands_prepared   0.0000
   3 C3     215.7140 152.4413 173.2538   C.3      778 ligands_prepared   0.0000
   4 N4     217.7534 152.2780 174.7727   N.4      778 ligands_prepared   1.0000
   5 C5     218.7077 153.0828 175.6157   C.3      778 ligands_prepared   0.0000
   6 C6     219.7839 152.1797 176.2389   C.3      778 ligands_prepared   0.0000
   7 O7     220.5377 153.1120 177.0196   O.3      778 ligands_prepared   0.0000
   8 C8     220.1160 153.3299 178.2905   C.ar     778 ligands_prepared   0.0000
   9 C9     221.1455 153.6966 179.1727   C.ar     778 ligands_prepared   0.0000
  10 C10    220.8189 153.9053 180.5031   C.ar     778 ligands_prepared   0.0000
  11 C11    219.4837 153.7435 180.9083   C.ar     778 ligands_prepared   0.0000
  12 N12    218.5032 153.3946 180.0574   N.ar     778 ligands_prepared   0.0000
  13 C13    218.8030 153.1879 178.7608   C.ar     778 ligands_prepared   0.0000
  14 C14    218.4922 151.2480 173.8880   C.3      778 ligands_prepared   0.0000
  15 C15    217.6009 150.1137 173.4067   C.3      778 ligands_prepared   0.0000
  16 C16    219.0921 152.0048 172.7074   C.3      778 ligands_prepared   0.0000
  17 H17    215.6883 155.0171 174.3552   H        778 ligands_prepared   0.0000
  18 H18    215.5516 153.8431 175.6592   H        778 ligands_prepared   0.0000
  19 H19    217.0340 154.7987 175.4677   H        778 ligands_prepared   0.0000
  20 H20    217.4684 153.7162 173.2016   H        778 ligands_prepared   0.0000
  21 H21    215.1415 153.1215 172.5992   H        778 ligands_prepared   0.0000
  22 H22    216.0967 151.6465 172.5992   H        778 ligands_prepared   0.0000
  23 H23    214.9827 151.9923 173.9389   H        778 ligands_prepared   0.0000
  24 H24    217.1313 151.7215 175.4317   H        778 ligands_prepared   0.0000
  25 H25    218.1553 153.6455 176.4048   H        778 ligands_prepared   0.0000
  26 H26    219.2051 153.8607 174.9772   H        778 ligands_prepared   0.0000
  27 H27    219.3590 151.3986 176.8980   H        778 ligands_prepared   0.0000
  28 H28    220.4488 151.7170 175.4824   H        778 ligands_prepared   0.0000
  29 H29    222.1674 153.8107 178.8056   H        778 ligands_prepared   0.0000
  30 H30    221.5834 154.1930 181.2293   H        778 ligands_prepared   0.0000
  31 H31    219.1844 153.8975 181.9544   H        778 ligands_prepared   0.0000
  32 H32    217.9694 152.9043 178.1090   H        778 ligands_prepared   0.0000
  33 H33    219.3208 150.8259 174.5240   H        778 ligands_prepared   0.0000
  34 H34    218.2191 149.3090 172.9725   H        778 ligands_prepared   0.0000
  35 H35    217.0137 149.6437 174.2053   H        778 ligands_prepared   0.0000
  36 H36    216.8985 150.4163 172.6169   H        778 ligands_prepared   0.0000
  37 H37    218.3308 152.4574 172.0548   H        778 ligands_prepared   0.0000
  38 H38    219.7816 152.8039 173.0171   H        778 ligands_prepared   0.0000
  39 H39    219.6802 151.3229 172.0723   H        778 ligands_prepared   0.0000
@<TRIPOS>BOND
   1  1  2    1
   2  1 17    1
   3  1 18    1
   4  1 19    1
   5  2  3    1
   6  2  4    1
   7  2 20    1
   8  3 21    1
   9  3 22    1
  10  3 23    1
  11  4  5    1
  12  4 14    1
  13  4 24    1
  14  5  6    1
  15  5 25    1
  16  5 26    1
  17  6  7    1
  18  6 27    1
  19  6 28    1
  20  7  8    1
  21  8  9   ar
  22  8 13   ar
  23  9 10   ar
  24  9 29    1
  25 10 11   ar
  26 10 30    1
  27 11 12   ar
  28 11 31    1
  29 12 13   ar
  30 13 32    1
  31 14 15    1
  32 14 16    1
  33 14 33    1
  34 15 34    1
  35 15 35    1
  36 15 36    1
  37 16 37    1
  38 16 38    1
  39 16 39    1
