@<TRIPOS>MOLECULE
CHEMBL194082_LIG
51 55 1 0 0
SMALL
USER_CHARGES

@<TRIPOS>ATOM
   1 O1     224.5923 151.2210 176.7851   O.2      778 ligands_prepared   0.0000
   2 C2     223.9244 152.2108 177.0557   C.2      778 ligands_prepared   0.0000
   3 N3     222.6136 152.1122 177.4363   N.am     778 ligands_prepared   0.0000
   4 C4     221.8615 153.3170 177.7770   C.3      778 ligands_prepared   0.0000
   5 C5     221.6507 153.4010 179.3138   C.3      778 ligands_prepared   0.0000
   6 C6     220.6942 152.2943 179.7697   C.3      778 ligands_prepared   0.0000
   7 C7     219.3196 152.5184 179.1268   C.3      778 ligands_prepared   0.0000
   8 N8     219.3869 153.6483 178.1192   N.4      778 ligands_prepared   1.0000
   9 C9     219.7239 154.9372 178.8467   C.3      778 ligands_prepared   0.0000
  10 C10    221.0401 154.7752 179.6217   C.3      778 ligands_prepared   0.0000
  11 C11    220.4679 153.3989 177.0657   C.3      778 ligands_prepared   0.0000
  12 C12    220.0610 152.2033 176.1988   C.3      778 ligands_prepared   0.0000
  13 C13    218.9460 152.5123 175.2548   C.ar     778 ligands_prepared   0.0000
  14 C14    217.7491 153.1049 175.6637   C.ar     778 ligands_prepared   0.0000
  15 C15    216.7663 153.3819 174.7182   C.ar     778 ligands_prepared   0.0000
  16 C16    216.9989 153.0384 173.3825   C.ar     778 ligands_prepared   0.0000
  17 N17    218.1375 152.4374 172.9815   N.ar     778 ligands_prepared   0.0000
  18 C18    219.0903 152.1824 173.8955   C.ar     778 ligands_prepared   0.0000
  19 C19    224.4938 153.5656 177.0067   C.2      778 ligands_prepared   0.0000
  20 C20    224.3295 154.6573 176.2082   C.2      778 ligands_prepared   0.0000
  21 C21    225.1461 155.7016 176.7823   C.ar     778 ligands_prepared   0.0000
  22 C22    225.4067 157.0367 176.4732   C.ar     778 ligands_prepared   0.0000
  23 C23    226.2801 157.7341 177.2980   C.ar     778 ligands_prepared   0.0000
  24 C24    226.9008 157.1250 178.4041   C.ar     778 ligands_prepared   0.0000
  25 C25    226.6602 155.7962 178.7371   C.ar     778 ligands_prepared   0.0000
  26 C26    225.7725 155.1207 177.9127   C.ar     778 ligands_prepared   0.0000
  27 O27    225.3745 153.8080 178.0678   O.3      778 ligands_prepared   0.0000
  28 H28    222.1471 151.2163 177.5561   H        778 ligands_prepared   0.0000
  29 H29    222.4605 154.2199 177.4487   H        778 ligands_prepared   0.0000
  30 H30    222.6342 153.2922 179.8304   H        778 ligands_prepared   0.0000
  31 H31    220.6105 152.2847 180.8755   H        778 ligands_prepared   0.0000
  32 H32    221.0938 151.2919 179.5137   H        778 ligands_prepared   0.0000
  33 H33    218.5557 152.7798 179.8968   H        778 ligands_prepared   0.0000
  34 H34    218.9382 151.5994 178.6275   H        778 ligands_prepared   0.0000
  35 H35    218.4510 153.7470 177.6404   H        778 ligands_prepared   0.0000
  36 H36    218.8795 155.1978 179.5236   H        778 ligands_prepared   0.0000
  37 H37    219.7844 155.7666 178.1028   H        778 ligands_prepared   0.0000
  38 H38    220.8699 154.8831 180.7120   H        778 ligands_prepared   0.0000
  39 H39    221.7494 155.5865 179.3590   H        778 ligands_prepared   0.0000
  40 H40    220.4729 154.3209 176.4106   H        778 ligands_prepared   0.0000
  41 H41    219.7396 151.3589 176.8655   H        778 ligands_prepared   0.0000
  42 H42    220.9385 151.7854 175.6537   H        778 ligands_prepared   0.0000
  43 H43    217.5773 153.3537 176.7141   H        778 ligands_prepared   0.0000
  44 H44    215.8302 153.8567 175.0159   H        778 ligands_prepared   0.0000
  45 H45    216.2562 153.2419 172.5988   H        778 ligands_prepared   0.0000
  46 H46    220.0010 151.6921 173.5215   H        778 ligands_prepared   0.0000
  47 H47    223.7224 154.7685 175.3271   H        778 ligands_prepared   0.0000
  48 H48    224.9345 157.5048 175.6101   H        778 ligands_prepared   0.0000
  49 H49    226.4976 158.7826 177.0856   H        778 ligands_prepared   0.0000
  50 H50    227.5891 157.7148 179.0163   H        778 ligands_prepared   0.0000
  51 H51    227.1391 155.3147 179.5877   H        778 ligands_prepared   0.0000
@<TRIPOS>BOND
   1  1  2    2
   2  2  3   am
   3  2 19    1
   4  3  4    1
   5  3 28    1
   6  4  5    1
   7  4 11    1
   8  4 29    1
   9  5  6    1
  10  5 10    1
  11  5 30    1
  12  6  7    1
  13  6 31    1
  14  6 32    1
  15  7  8    1
  16  7 33    1
  17  7 34    1
  18  8  9    1
  19  8 11    1
  20  8 35    1
  21  9 10    1
  22  9 36    1
  23  9 37    1
  24 10 38    1
  25 10 39    1
  26 11 12    1
  27 11 40    1
  28 12 13    1
  29 12 41    1
  30 12 42    1
  31 13 14   ar
  32 13 18   ar
  33 14 15   ar
  34 14 43    1
  35 15 16   ar
  36 15 44    1
  37 16 17   ar
  38 16 45    1
  39 17 18   ar
  40 18 46    1
  41 19 20    2
  42 19 27    1
  43 20 21    1
  44 20 47    1
  45 21 22   ar
  46 21 26   ar
  47 22 23   ar
  48 22 48    1
  49 23 24   ar
  50 23 49    1
  51 24 25   ar
  52 24 50    1
  53 25 26   ar
  54 25 51    1
  55 26 27    1
