@<TRIPOS>MOLECULE
CHEMBL2179853_LIG
47 50 1 0 0
SMALL
USER_CHARGES

@<TRIPOS>ATOM
   1 O1     222.2090 152.8247 176.4156   O.2      778 ligands_prepared   0.0000
   2 C2     222.2708 153.4024 177.4902   C.2      778 ligands_prepared   0.0000
   3 N3     223.3712 154.1382 177.8402   N.am     778 ligands_prepared   0.0000
   4 C4     224.4663 154.3350 176.8977   C.3      778 ligands_prepared   0.0000
   5 C5     224.9533 152.9832 176.3119   C.3      778 ligands_prepared   0.0000
   6 C6     225.9107 153.3074 175.1561   C.3      778 ligands_prepared   0.0000
   7 C7     226.9976 154.2690 175.6568   C.3      778 ligands_prepared   0.0000
   8 N8     226.9595 154.3587 177.1701   N.4      778 ligands_prepared   1.0000
   9 C9     227.0038 152.9540 177.7496   C.3      778 ligands_prepared   0.0000
  10 C10    225.7213 152.1934 177.3800   C.3      778 ligands_prepared   0.0000
  11 C11    225.6641 155.0148 177.6385   C.3      778 ligands_prepared   0.0000
  12 C12    225.7023 156.5304 177.4065   C.3      778 ligands_prepared   0.0000
  13 C13    226.6214 157.1561 178.4037   C.ar     778 ligands_prepared   0.0000
  14 C14    226.9045 158.5223 178.3700   C.ar     778 ligands_prepared   0.0000
  15 C15    227.7659 159.0632 179.3214   C.ar     778 ligands_prepared   0.0000
  16 C16    228.3050 158.2199 180.2961   C.ar     778 ligands_prepared   0.0000
  17 N17    228.0271 156.9019 180.3524   N.ar     778 ligands_prepared   0.0000
  18 C18    227.2117 156.3773 179.4137   C.ar     778 ligands_prepared   0.0000
  19 C19    221.1212 153.3711 178.4510   C.ar     778 ligands_prepared   0.0000
  20 C20    219.8498 153.0481 177.9773   C.ar     778 ligands_prepared   0.0000
  21 C21    218.7784 153.1056 178.8750   C.ar     778 ligands_prepared   0.0000
  22 C22    219.0190 153.4661 180.1955   C.ar     778 ligands_prepared   0.0000
  23 C23    220.3361 153.7453 180.5939   C.ar     778 ligands_prepared   0.0000
  24 N24    221.3702 153.7040 179.7369   N.ar     778 ligands_prepared   0.0000
  25 H25    223.4369 154.5844 178.7536   H        778 ligands_prepared   0.0000
  26 H26    224.1181 154.9970 176.0545   H        778 ligands_prepared   0.0000
  27 H27    224.0786 152.3971 175.9457   H        778 ligands_prepared   0.0000
  28 H28    225.3670 153.7457 174.2952   H        778 ligands_prepared   0.0000
  29 H29    226.3637 152.3729 174.7651   H        778 ligands_prepared   0.0000
  30 H30    226.8743 155.2896 175.2284   H        778 ligands_prepared   0.0000
  31 H31    228.0131 153.9310 175.3477   H        778 ligands_prepared   0.0000
  32 H32    227.7872 154.9139 177.5126   H        778 ligands_prepared   0.0000
  33 H33    227.1373 153.0251 178.8536   H        778 ligands_prepared   0.0000
  34 H34    227.9100 152.4361 177.3601   H        778 ligands_prepared   0.0000
  35 H35    225.9667 151.1796 177.0066   H        778 ligands_prepared   0.0000
  36 H36    225.0923 152.0165 178.2750   H        778 ligands_prepared   0.0000
  37 H37    225.5916 154.8238 178.7481   H        778 ligands_prepared   0.0000
  38 H38    224.6844 156.9777 177.4650   H        778 ligands_prepared   0.0000
  39 H39    226.0417 156.7643 176.3684   H        778 ligands_prepared   0.0000
  40 H40    226.4429 159.1637 177.6150   H        778 ligands_prepared   0.0000
  41 H41    228.0117 160.1265 179.3086   H        778 ligands_prepared   0.0000
  42 H42    228.9852 158.5979 181.0722   H        778 ligands_prepared   0.0000
  43 H43    227.0149 155.3021 179.5026   H        778 ligands_prepared   0.0000
  44 H44    219.7010 152.7644 176.9324   H        778 ligands_prepared   0.0000
  45 H45    217.7658 152.8715 178.5353   H        778 ligands_prepared   0.0000
  46 H46    218.2049 153.5325 180.9197   H        778 ligands_prepared   0.0000
  47 H47    220.5815 154.0178 181.6297   H        778 ligands_prepared   0.0000
@<TRIPOS>BOND
   1  1  2    2
   2  2  3   am
   3  2 19    1
   4  3  4    1
   5  3 25    1
   6  4  5    1
   7  4 11    1
   8  4 26    1
   9  5  6    1
  10  5 10    1
  11  5 27    1
  12  6  7    1
  13  6 28    1
  14  6 29    1
  15  7  8    1
  16  7 30    1
  17  7 31    1
  18  8  9    1
  19  8 11    1
  20  8 32    1
  21  9 10    1
  22  9 33    1
  23  9 34    1
  24 10 35    1
  25 10 36    1
  26 11 12    1
  27 11 37    1
  28 12 13    1
  29 12 38    1
  30 12 39    1
  31 13 14   ar
  32 13 18   ar
  33 14 15   ar
  34 14 40    1
  35 15 16   ar
  36 15 41    1
  37 16 17   ar
  38 16 42    1
  39 17 18   ar
  40 18 43    1
  41 19 20   ar
  42 19 24   ar
  43 20 21   ar
  44 20 44    1
  45 21 22   ar
  46 21 45    1
  47 22 23   ar
  48 22 46    1
  49 23 24   ar
  50 23 47    1
