@<TRIPOS>MOLECULE
CHEMBL2180265_LIG
51 55 1 0 0
SMALL
USER_CHARGES

@<TRIPOS>ATOM
   1 O1     224.0544 151.6845 177.4943   O.2      778 ligands_prepared   0.0000
   2 C2     223.8219 152.8547 177.2175   C.2      778 ligands_prepared   0.0000
   3 N3     222.5982 153.4187 177.4709   N.am     778 ligands_prepared   0.0000
   4 C4     221.5894 152.6748 178.2194   C.3      778 ligands_prepared   0.0000
   5 C5     221.3620 153.3334 179.6059   C.3      778 ligands_prepared   0.0000
   6 C6     220.4048 152.4279 180.3930   C.3      778 ligands_prepared   0.0000
   7 C7     219.0550 152.3529 179.6645   C.3      778 ligands_prepared   0.0000
   8 N8     219.1136 153.1463 178.3702   N.4      778 ligands_prepared   1.0000
   9 C9     219.3968 154.5987 178.6946   C.3      778 ligands_prepared   0.0000
  10 C10    220.7226 154.7195 179.4558   C.3      778 ligands_prepared   0.0000
  11 C11    220.2100 152.5570 177.4820   C.3      778 ligands_prepared   0.0000
  12 C12    220.1817 153.1941 176.0917   C.3      778 ligands_prepared   0.0000
  13 C13    219.0532 152.6800 175.2614   C.ar     778 ligands_prepared   0.0000
  14 C14    217.7293 152.9868 175.5854   C.ar     778 ligands_prepared   0.0000
  15 C15    216.7008 152.5005 174.7838   C.ar     778 ligands_prepared   0.0000
  16 C16    217.0280 151.7191 173.6698   C.ar     778 ligands_prepared   0.0000
  17 N17    218.3036 151.4251 173.3435   N.ar     778 ligands_prepared   0.0000
  18 C18    219.2962 151.8982 174.1205   C.ar     778 ligands_prepared   0.0000
  19 C19    224.8521 153.7132 176.6232   C.2      778 ligands_prepared   0.0000
  20 C20    226.1229 153.4593 176.1963   C.2      778 ligands_prepared   0.0000
  21 C21    226.6685 154.7295 175.7749   C.ar     778 ligands_prepared   0.0000
  22 C22    227.8874 155.1647 175.2540   C.ar     778 ligands_prepared   0.0000
  23 C23    228.0412 156.5213 174.9993   C.ar     778 ligands_prepared   0.0000
  24 C24    227.0069 157.4429 175.2472   C.ar     778 ligands_prepared   0.0000
  25 C25    225.7746 157.0385 175.7504   C.ar     778 ligands_prepared   0.0000
  26 C26    225.6412 155.6808 175.9988   C.ar     778 ligands_prepared   0.0000
  27 O27    224.5131 155.0679 176.5089   O.3      778 ligands_prepared   0.0000
  28 H28    222.3852 154.3820 177.2167   H        778 ligands_prepared   0.0000
  29 H29    221.9686 151.6197 178.3777   H        778 ligands_prepared   0.0000
  30 H30    222.3377 153.4216 180.1429   H        778 ligands_prepared   0.0000
  31 H31    220.2706 152.8174 181.4230   H        778 ligands_prepared   0.0000
  32 H32    220.8376 151.4154 180.5262   H        778 ligands_prepared   0.0000
  33 H33    218.2303 152.7637 180.2936   H        778 ligands_prepared   0.0000
  34 H34    218.7710 151.3004 179.4327   H        778 ligands_prepared   0.0000
  35 H35    218.1935 153.0710 177.8644   H        778 ligands_prepared   0.0000
  36 H36    218.5448 154.9991 179.2960   H        778 ligands_prepared   0.0000
  37 H37    219.4074 155.1903 177.7519   H        778 ligands_prepared   0.0000
  38 H38    220.5533 155.1678 180.4587   H        778 ligands_prepared   0.0000
  39 H39    221.4026 155.4322 178.9496   H        778 ligands_prepared   0.0000
  40 H40    219.9715 151.4587 177.3802   H        778 ligands_prepared   0.0000
  41 H41    220.1600 154.3068 176.1539   H        778 ligands_prepared   0.0000
  42 H42    221.1563 152.9815 175.5813   H        778 ligands_prepared   0.0000
  43 H43    217.5000 153.6085 176.4569   H        778 ligands_prepared   0.0000
  44 H44    215.6588 152.7235 175.0185   H        778 ligands_prepared   0.0000
  45 H45    216.2518 151.3112 173.0056   H        778 ligands_prepared   0.0000
  46 H46    220.3187 151.6387 173.8099   H        778 ligands_prepared   0.0000
  47 H47    226.6410 152.5153 176.1756   H        778 ligands_prepared   0.0000
  48 H48    228.6911 154.4552 175.0537   H        778 ligands_prepared   0.0000
  49 H49    228.9871 156.8908 174.5973   H        778 ligands_prepared   0.0000
  50 H50    227.1798 158.5033 175.0378   H        778 ligands_prepared   0.0000
  51 H51    224.9642 157.7403 175.9397   H        778 ligands_prepared   0.0000
@<TRIPOS>BOND
   1  1  2    2
   2  2  3   am
   3  2 19    1
   4  3  4    1
   5  3 28    1
   6  4  5    1
   7  4 11    1
   8  4 29    1
   9  5  6    1
  10  5 10    1
  11  5 30    1
  12  6  7    1
  13  6 31    1
  14  6 32    1
  15  7  8    1
  16  7 33    1
  17  7 34    1
  18  8  9    1
  19  8 11    1
  20  8 35    1
  21  9 10    1
  22  9 36    1
  23  9 37    1
  24 10 38    1
  25 10 39    1
  26 11 12    1
  27 11 40    1
  28 12 13    1
  29 12 41    1
  30 12 42    1
  31 13 14   ar
  32 13 18   ar
  33 14 15   ar
  34 14 43    1
  35 15 16   ar
  36 15 44    1
  37 16 17   ar
  38 16 45    1
  39 17 18   ar
  40 18 46    1
  41 19 20    2
  42 19 27    1
  43 20 21    1
  44 20 47    1
  45 21 22   ar
  46 21 26   ar
  47 22 23   ar
  48 22 48    1
  49 23 24   ar
  50 23 49    1
  51 24 25   ar
  52 24 50    1
  53 25 26   ar
  54 25 51    1
  55 26 27    1
