@<TRIPOS>MOLECULE
CHEMBL2381563_nacw_LIG
34 35 1 0 0
SMALL
USER_CHARGES

@<TRIPOS>ATOM
   1 C1     224.7932 155.7669 176.1261   C.3      778 ligands_prepared   0.0000
   2 N2     224.8532 154.7292 177.2060   N.4      778 ligands_prepared   1.0000
   3 C3     226.4966 154.0823 177.3400   C.3      778 ligands_prepared   0.0000
   4 C4     226.1772 152.6546 176.8773   C.3      778 ligands_prepared   0.0000
   5 C5     224.8226 152.3044 177.4991   C.3      778 ligands_prepared   0.0000
   6 C6     223.8538 153.3943 177.0292   C.3      778 ligands_prepared   0.0000
   7 C7     222.5261 153.3744 177.7773   C.3      778 ligands_prepared   0.0000
   8 O8     221.4838 152.8493 176.9584   O.3      778 ligands_prepared   0.0000
   9 C9     220.1997 153.0768 177.3259   C.2      778 ligands_prepared   0.0000
  10 O10    219.8994 153.3601 178.4627   O.2      778 ligands_prepared   0.0000
  11 C11    219.2815 152.9248 176.1855   C.ar     778 ligands_prepared   0.0000
  12 C12    217.9666 153.3900 176.3133   C.ar     778 ligands_prepared   0.0000
  13 C13    217.0580 153.1808 175.2747   C.ar     778 ligands_prepared   0.0000
  14 C14    217.5019 152.5077 174.1428   C.ar     778 ligands_prepared   0.0000
  15 Cl15   216.3670 152.1979 172.8934   Cl       778 ligands_prepared   0.0000
  16 C16    218.8053 152.0575 173.9823   C.ar     778 ligands_prepared   0.0000
  17 C17    219.7074 152.2723 175.0253   C.ar     778 ligands_prepared   0.0000
  18 H18    225.2054 155.3954 175.1698   H        778 ligands_prepared   0.0000
  19 H19    225.3564 156.6783 176.4087   H        778 ligands_prepared   0.0000
  20 H20    223.7431 156.0812 175.9514   H        778 ligands_prepared   0.0000
  21 H21    224.4905 155.1548 178.1021   H        778 ligands_prepared   0.0000
  22 H22    226.9339 154.0841 178.3620   H        778 ligands_prepared   0.0000
  23 H23    227.2450 154.5772 176.6803   H        778 ligands_prepared   0.0000
  24 H24    226.9634 151.9362 177.1923   H        778 ligands_prepared   0.0000
  25 H25    226.1561 152.5804 175.7698   H        778 ligands_prepared   0.0000
  26 H26    224.4685 151.2975 177.2005   H        778 ligands_prepared   0.0000
  27 H27    224.9048 152.2768 178.6027   H        778 ligands_prepared   0.0000
  28 H28    223.6291 153.2541 175.9266   H        778 ligands_prepared   0.0000
  29 H29    222.5182 152.6921 178.6539   H        778 ligands_prepared   0.0000
  30 H30    222.2823 154.4002 178.1313   H        778 ligands_prepared   0.0000
  31 H31    217.6437 153.8947 177.2319   H        778 ligands_prepared   0.0000
  32 H32    216.0241 153.5258 175.3709   H        778 ligands_prepared   0.0000
  33 H33    219.1309 151.5316 173.0801   H        778 ligands_prepared   0.0000
  34 H34    220.7351 151.9021 174.9395   H        778 ligands_prepared   0.0000
@<TRIPOS>BOND
   1  1  2    1
   2  1 18    1
   3  1 19    1
   4  1 20    1
   5  2  3    1
   6  2  6    1
   7  2 21    1
   8  3  4    1
   9  3 22    1
  10  3 23    1
  11  4  5    1
  12  4 24    1
  13  4 25    1
  14  5  6    1
  15  5 26    1
  16  5 27    1
  17  6  7    1
  18  6 28    1
  19  7  8    1
  20  7 29    1
  21  7 30    1
  22  8  9    1
  23  9 10    2
  24  9 11    1
  25 11 12   ar
  26 11 17   ar
  27 12 13   ar
  28 12 31    1
  29 13 14   ar
  30 13 32    1
  31 14 15    1
  32 14 16   ar
  33 16 17   ar
  34 16 33    1
  35 17 34    1
