@<TRIPOS>MOLECULE
CHEMBL3329538_LIG
27 29 1 0 0
SMALL
USER_CHARGES

@<TRIPOS>ATOM
   1 O1     218.1778 153.4129 177.4997   O.2      778 ligands_prepared   0.0000
   2 C2     218.9620 153.0023 176.6498   C.2      778 ligands_prepared   0.0000
   3 C3     220.4219 152.8801 176.8950   C.3      778 ligands_prepared   0.0000
   4 C4     220.8997 151.9243 177.9747   C.3      778 ligands_prepared   0.0000
   5 C5     221.0431 153.4058 178.1806   C.3      778 ligands_prepared   0.0000
   6 F6     220.1897 153.9713 179.0471   F        778 ligands_prepared   0.0000
   7 N7     218.4642 152.5906 175.4414   N.am     778 ligands_prepared   0.0000
   8 C8     216.9956 152.6285 175.2503   C.3      778 ligands_prepared   0.0000
   9 C9     216.6003 152.0490 173.8887   C.3      778 ligands_prepared   0.0000
  10 C10    217.4443 152.7357 172.7771   C.3      778 ligands_prepared   0.0000
  11 C11    218.5521 151.7005 173.1250   C.3      778 ligands_prepared   0.0000
  12 C12    219.3571 152.1976 174.3307   C.3      778 ligands_prepared   0.0000
  13 N13    217.4431 150.7639 173.6709   N.4      778 ligands_prepared   1.0000
  14 H14    221.0119 152.9550 175.9638   H        778 ligands_prepared   0.0000
  15 H15    220.1664 151.3467 178.5422   H        778 ligands_prepared   0.0000
  16 H16    221.7880 151.3155 177.7902   H        778 ligands_prepared   0.0000
  17 H17    222.0194 153.9237 178.1696   H        778 ligands_prepared   0.0000
  18 H18    216.6260 153.6824 175.3335   H        778 ligands_prepared   0.0000
  19 H19    216.5084 152.0635 176.0856   H        778 ligands_prepared   0.0000
  20 H20    215.5166 151.9163 173.7398   H        778 ligands_prepared   0.0000
  21 H21    217.0314 152.6485 171.7629   H        778 ligands_prepared   0.0000
  22 H22    217.6930 153.7907 172.9322   H        778 ligands_prepared   0.0000
  23 H23    219.1616 151.2715 172.3125   H        778 ligands_prepared   0.0000
  24 H24    219.9870 153.0684 174.0155   H        778 ligands_prepared   0.0000
  25 H25    220.0651 151.4056 174.6833   H        778 ligands_prepared   0.0000
  26 H26    217.6791 150.2227 174.5152   H        778 ligands_prepared   0.0000
  27 H27    217.0537 150.1174 172.9652   H        778 ligands_prepared   0.0000
@<TRIPOS>BOND
   1  1  2    2
   2  2  3    1
   3  2  7   am
   4  3  4    1
   5  3  5    1
   6  3 14    1
   7  4  5    1
   8  4 15    1
   9  4 16    1
  10  5  6    1
  11  5 17    1
  12  8  7    1
  13  7 12    1
  14  8  9    1
  15  8 18    1
  16  8 19    1
  17  9 10    1
  18  9 13    1
  19  9 20    1
  20 10 11    1
  21 10 21    1
  22 10 22    1
  23 11 12    1
  24 11 13    1
  25 11 23    1
  26 12 24    1
  27 12 25    1
  28 13 26    1
  29 13 27    1
