@<TRIPOS>MOLECULE
CHEMBL2179965_LIG
30 32 1 0 0
SMALL
USER_CHARGES

@<TRIPOS>ATOM
   1 O1     217.8933 153.3997 177.5972   O.2      778 ligands_prepared   0.0000
   2 C2     218.6769 153.1962 176.6708   C.2      778 ligands_prepared   0.0000
   3 C3     220.1463 153.2408 176.8807   C.3      778 ligands_prepared   0.0000
   4 C4     220.7397 152.2010 177.8187   C.3      778 ligands_prepared   0.0000
   5 C5     220.6338 153.6285 178.2688   C.3      778 ligands_prepared   0.0000
   6 N6     218.1490 152.9732 175.4208   N.am     778 ligands_prepared   0.0000
   7 C7     219.1000 152.8367 174.2934   C.3      778 ligands_prepared   0.0000
   8 C8     218.4778 152.0854 173.1004   C.3      778 ligands_prepared   0.0000
   9 C9     217.9753 150.6909 173.5214   C.3      778 ligands_prepared   0.0000
  10 N10    216.5780 150.9288 174.0914   N.4      778 ligands_prepared   1.0000
  11 C11    216.2820 152.4192 173.8720   C.3      778 ligands_prepared   0.0000
  12 C12    217.1793 152.8002 172.6892   C.3      778 ligands_prepared   0.0000
  13 C13    216.7325 153.2197 175.1105   C.3      778 ligands_prepared   0.0000
  14 H14    220.7467 153.5666 176.0211   H        778 ligands_prepared   0.0000
  15 H15    220.0822 151.4451 178.2510   H        778 ligands_prepared   0.0000
  16 H16    221.7117 151.7700 177.5791   H        778 ligands_prepared   0.0000
  17 H17    219.9026 153.9097 179.0269   H        778 ligands_prepared   0.0000
  18 H18    221.5278 154.2464 178.3549   H        778 ligands_prepared   0.0000
  19 H19    219.4503 153.8448 173.9694   H        778 ligands_prepared   0.0000
  20 H20    220.0045 152.2853 174.6546   H        778 ligands_prepared   0.0000
  21 H21    219.2148 152.0210 172.2701   H        778 ligands_prepared   0.0000
  22 H22    217.9118 149.9965 172.6553   H        778 ligands_prepared   0.0000
  23 H23    218.6197 150.2032 174.2822   H        778 ligands_prepared   0.0000
  24 H24    215.8723 150.3344 173.6124   H        778 ligands_prepared   0.0000
  25 H25    216.5411 150.6858 175.1012   H        778 ligands_prepared   0.0000
  26 H26    215.1898 152.5547 173.6840   H        778 ligands_prepared   0.0000
  27 H27    216.7859 152.4427 171.7201   H        778 ligands_prepared   0.0000
  28 H28    217.2977 153.8916 172.5753   H        778 ligands_prepared   0.0000
  29 H29    216.5569 154.3090 174.9189   H        778 ligands_prepared   0.0000
  30 H30    216.0932 152.9535 175.9884   H        778 ligands_prepared   0.0000
@<TRIPOS>BOND
   1  1  2    2
   2  2  3    1
   3  2  6   am
   4  3  4    1
   5  3  5    1
   6  3 14    1
   7  4  5    1
   8  4 15    1
   9  4 16    1
  10  5 17    1
  11  5 18    1
  12  7  6    1
  13  6 13    1
  14  7  8    1
  15  7 19    1
  16  7 20    1
  17  8  9    1
  18  8 12    1
  19  8 21    1
  20  9 10    1
  21  9 22    1
  22  9 23    1
  23 10 11    1
  24 10 24    1
  25 10 25    1
  26 11 12    1
  27 11 13    1
  28 11 26    1
  29 12 27    1
  30 12 28    1
  31 13 29    1
  32 13 30    1
