@<TRIPOS>MOLECULE
CHEMBL2179841_LIG
48 51 1 0 0
SMALL
USER_CHARGES

@<TRIPOS>ATOM
   1 O1     222.6784 152.4506 177.1327   O.2      778 ligands_prepared   0.0000
   2 C2     223.1176 153.5847 177.2492   C.2      778 ligands_prepared   0.0000
   3 N3     222.3549 154.5966 177.7696   N.am     778 ligands_prepared   0.0000
   4 C4     220.9785 154.3540 178.1906   C.3      778 ligands_prepared   0.0000
   5 C5     220.9338 153.7456 179.6144   C.3      778 ligands_prepared   0.0000
   6 C6     219.4587 153.6986 180.0372   C.3      778 ligands_prepared   0.0000
   7 C7     218.6647 152.8511 179.0314   C.3      778 ligands_prepared   0.0000
   8 N8     219.5955 152.2574 177.9911   N.4      778 ligands_prepared   1.0000
   9 C9     220.6509 151.4229 178.6968   C.3      778 ligands_prepared   0.0000
  10 C10    221.4985 152.3181 179.6124   C.3      778 ligands_prepared   0.0000
  11 C11    220.3013 153.3528 177.1970   C.3      778 ligands_prepared   0.0000
  12 C12    219.3199 154.0703 176.2676   C.3      778 ligands_prepared   0.0000
  13 C13    218.6247 153.1014 175.3727   C.ar     778 ligands_prepared   0.0000
  14 C14    217.2319 153.0497 175.2963   C.ar     778 ligands_prepared   0.0000
  15 C15    216.6305 152.1048 174.4686   C.ar     778 ligands_prepared   0.0000
  16 C16    217.4477 151.2428 173.7286   C.ar     778 ligands_prepared   0.0000
  17 N17    218.7934 151.3001 173.7813   N.ar     778 ligands_prepared   0.0000
  18 C18    219.3719 152.2100 174.5866   C.ar     778 ligands_prepared   0.0000
  19 C19    224.4981 153.9648 176.8441   C.ar     778 ligands_prepared   0.0000
  20 C20    225.5235 153.0289 176.9699   C.ar     778 ligands_prepared   0.0000
  21 C21    226.8231 153.3748 176.5998   C.ar     778 ligands_prepared   0.0000
  22 C22    227.0979 154.6511 176.1115   C.ar     778 ligands_prepared   0.0000
  23 C23    226.0503 155.5576 176.0084   C.ar     778 ligands_prepared   0.0000
  24 Cl24   226.3847 157.1344 175.4219   Cl       778 ligands_prepared   0.0000
  25 C25    224.7447 155.2480 176.3598   C.ar     778 ligands_prepared   0.0000
  26 H26    222.7231 155.5409 177.8815   H        778 ligands_prepared   0.0000
  27 H27    220.4145 155.3314 178.1905   H        778 ligands_prepared   0.0000
  28 H28    221.5167 154.3853 180.3188   H        778 ligands_prepared   0.0000
  29 H29    219.0336 154.7198 180.1095   H        778 ligands_prepared   0.0000
  30 H30    219.3663 153.2791 181.0605   H        778 ligands_prepared   0.0000
  31 H31    217.8796 153.4527 178.5210   H        778 ligands_prepared   0.0000
  32 H32    218.1284 152.0155 179.5414   H        778 ligands_prepared   0.0000
  33 H33    219.0464 151.6528 177.3273   H        778 ligands_prepared   0.0000
  34 H34    220.1379 150.6184 179.2731   H        778 ligands_prepared   0.0000
  35 H35    221.2749 150.9058 177.9334   H        778 ligands_prepared   0.0000
  36 H36    221.5086 151.9115 180.6456   H        778 ligands_prepared   0.0000
  37 H37    222.5609 152.3041 179.3008   H        778 ligands_prepared   0.0000
  38 H38    221.0945 152.8434 176.5795   H        778 ligands_prepared   0.0000
  39 H39    218.5952 154.6958 176.8367   H        778 ligands_prepared   0.0000
  40 H40    219.8850 154.8289 175.6643   H        778 ligands_prepared   0.0000
  41 H41    216.6148 153.7439 175.8732   H        778 ligands_prepared   0.0000
  42 H42    215.5445 152.0357 174.3975   H        778 ligands_prepared   0.0000
  43 H43    217.0213 150.4762 173.0642   H        778 ligands_prepared   0.0000
  44 H44    220.4703 152.2226 174.5952   H        778 ligands_prepared   0.0000
  45 H45    225.3110 152.0269 177.3533   H        778 ligands_prepared   0.0000
  46 H46    227.6286 152.6403 176.6931   H        778 ligands_prepared   0.0000
  47 H47    228.1179 154.9186 175.8205   H        778 ligands_prepared   0.0000
  48 H48    223.9328 155.9749 176.2640   H        778 ligands_prepared   0.0000
@<TRIPOS>BOND
   1  1  2    2
   2  2  3   am
   3  2 19    1
   4  3  4    1
   5  3 26    1
   6  4  5    1
   7  4 11    1
   8  4 27    1
   9  5  6    1
  10  5 10    1
  11  5 28    1
  12  6  7    1
  13  6 29    1
  14  6 30    1
  15  7  8    1
  16  7 31    1
  17  7 32    1
  18  8  9    1
  19  8 11    1
  20  8 33    1
  21  9 10    1
  22  9 34    1
  23  9 35    1
  24 10 36    1
  25 10 37    1
  26 11 12    1
  27 11 38    1
  28 12 13    1
  29 12 39    1
  30 12 40    1
  31 13 14   ar
  32 13 18   ar
  33 14 15   ar
  34 14 41    1
  35 15 16   ar
  36 15 42    1
  37 16 17   ar
  38 16 43    1
  39 17 18   ar
  40 18 44    1
  41 19 20   ar
  42 19 25   ar
  43 20 21   ar
  44 20 45    1
  45 21 22   ar
  46 21 46    1
  47 22 23   ar
  48 22 47    1
  49 23 24    1
  50 23 25   ar
  51 25 48    1
