@<TRIPOS>MOLECULE
CHEMBL2179838_LIG
48 51 1 0 0
SMALL
USER_CHARGES

@<TRIPOS>ATOM
   1 O1     223.6729 152.5351 176.3540   O.2      778 ligands_prepared   0.0000
   2 C2     223.1188 153.4714 176.9128   C.2      778 ligands_prepared   0.0000
   3 N3     223.7128 154.7071 176.9576   N.am     778 ligands_prepared   0.0000
   4 C4     225.0004 154.9163 176.2944   C.3      778 ligands_prepared   0.0000
   5 C5     226.0770 153.9437 176.8363   C.3      778 ligands_prepared   0.0000
   6 C6     227.3711 154.2433 176.0632   C.3      778 ligands_prepared   0.0000
   7 C7     227.8717 155.6466 176.4297   C.3      778 ligands_prepared   0.0000
   8 N8     226.8281 156.3748 177.2549   N.4      778 ligands_prepared   1.0000
   9 C9     226.6554 155.6561 178.5810   C.3      778 ligands_prepared   0.0000
  10 C10    226.3236 154.1769 178.3339   C.3      778 ligands_prepared   0.0000
  11 C11    225.4761 156.3887 176.5434   C.3      778 ligands_prepared   0.0000
  12 C12    225.5634 157.1810 175.2364   C.3      778 ligands_prepared   0.0000
  13 C13    225.9644 158.5952 175.4869   C.ar     778 ligands_prepared   0.0000
  14 C14    227.2913 158.9337 175.7590   C.ar     778 ligands_prepared   0.0000
  15 C15    227.6165 160.2632 176.0158   C.ar     778 ligands_prepared   0.0000
  16 C16    226.5993 161.2217 175.9826   C.ar     778 ligands_prepared   0.0000
  17 N17    225.3191 160.9090 175.6942   N.ar     778 ligands_prepared   0.0000
  18 C18    225.0091 159.6221 175.4447   C.ar     778 ligands_prepared   0.0000
  19 C19    221.7782 153.3349 177.5447   C.ar     778 ligands_prepared   0.0000
  20 C20    220.7447 152.7889 176.7827   C.ar     778 ligands_prepared   0.0000
  21 C21    219.4666 152.6653 177.3296   C.ar     778 ligands_prepared   0.0000
  22 C22    219.2082 153.0994 178.6272   C.ar     778 ligands_prepared   0.0000
  23 C23    220.2632 153.6504 179.3573   C.ar     778 ligands_prepared   0.0000
  24 F24    220.0278 154.0732 180.5963   F        778 ligands_prepared   0.0000
  25 C25    221.5539 153.7746 178.8482   C.ar     778 ligands_prepared   0.0000
  26 H26    223.2908 155.4937 177.4429   H        778 ligands_prepared   0.0000
  27 H27    224.8654 154.7467 175.1859   H        778 ligands_prepared   0.0000
  28 H28    225.7582 152.8880 176.6627   H        778 ligands_prepared   0.0000
  29 H29    227.2015 154.1568 174.9700   H        778 ligands_prepared   0.0000
  30 H30    228.1444 153.4836 176.2940   H        778 ligands_prepared   0.0000
  31 H31    228.1109 156.2476 175.5247   H        778 ligands_prepared   0.0000
  32 H32    228.8171 155.5998 177.0224   H        778 ligands_prepared   0.0000
  33 H33    227.1364 157.3685 177.4178   H        778 ligands_prepared   0.0000
  34 H34    227.5897 155.7710 179.1761   H        778 ligands_prepared   0.0000
  35 H35    225.8529 156.1665 179.1638   H        778 ligands_prepared   0.0000
  36 H36    227.1549 153.5279 178.6839   H        778 ligands_prepared   0.0000
  37 H37    225.4546 153.8609 178.9453   H        778 ligands_prepared   0.0000
  38 H38    224.7522 156.9036 177.2386   H        778 ligands_prepared   0.0000
  39 H39    226.2379 156.6881 174.5010   H        778 ligands_prepared   0.0000
  40 H40    224.5640 157.1440 174.7258   H        778 ligands_prepared   0.0000
  41 H41    228.0723 158.1680 175.7640   H        778 ligands_prepared   0.0000
  42 H42    228.6436 160.5542 176.2378   H        778 ligands_prepared   0.0000
  43 H43    226.8045 162.2848 176.1795   H        778 ligands_prepared   0.0000
  44 H44    223.9570 159.4193 175.1972   H        778 ligands_prepared   0.0000
  45 H45    220.9338 152.4668 175.7534   H        778 ligands_prepared   0.0000
  46 H46    218.6618 152.2199 176.7318   H        778 ligands_prepared   0.0000
  47 H47    218.2018 153.0151 179.0552   H        778 ligands_prepared   0.0000
  48 H48    222.3536 154.2164 179.4445   H        778 ligands_prepared   0.0000
@<TRIPOS>BOND
   1  1  2    2
   2  2  3   am
   3  2 19    1
   4  3  4    1
   5  3 26    1
   6  4  5    1
   7  4 11    1
   8  4 27    1
   9  5  6    1
  10  5 10    1
  11  5 28    1
  12  6  7    1
  13  6 29    1
  14  6 30    1
  15  7  8    1
  16  7 31    1
  17  7 32    1
  18  8  9    1
  19  8 11    1
  20  8 33    1
  21  9 10    1
  22  9 34    1
  23  9 35    1
  24 10 36    1
  25 10 37    1
  26 11 12    1
  27 11 38    1
  28 12 13    1
  29 12 39    1
  30 12 40    1
  31 13 14   ar
  32 13 18   ar
  33 14 15   ar
  34 14 41    1
  35 15 16   ar
  36 15 42    1
  37 16 17   ar
  38 16 43    1
  39 17 18   ar
  40 18 44    1
  41 19 20   ar
  42 19 25   ar
  43 20 21   ar
  44 20 45    1
  45 21 22   ar
  46 21 46    1
  47 22 23   ar
  48 22 47    1
  49 23 24    1
  50 23 25   ar
  51 25 48    1
