@<TRIPOS>MOLECULE
CHEMBL2180253_LIG
52 56 1 0 0
SMALL
USER_CHARGES

@<TRIPOS>ATOM
   1 O1     224.7368 151.2188 176.9513   O.2      778 ligands_prepared   0.0000
   2 C2     223.9857 152.1719 177.1138   C.2      778 ligands_prepared   0.0000
   3 N3     222.6390 151.9957 177.2838   N.am     778 ligands_prepared   0.0000
   4 C4     221.7785 153.1578 177.4994   C.3      778 ligands_prepared   0.0000
   5 C5     221.7875 153.5830 178.9889   C.3      778 ligands_prepared   0.0000
   6 C6     221.1557 152.5043 179.8787   C.3      778 ligands_prepared   0.0000
   7 C7     219.7421 152.1743 179.3826   C.3      778 ligands_prepared   0.0000
   8 N8     219.3671 153.1070 178.2454   N.4      778 ligands_prepared   1.0000
   9 C9     219.4885 154.5403 178.7278   C.3      778 ligands_prepared   0.0000
  10 C10    220.9457 154.8646 179.0847   C.3      778 ligands_prepared   0.0000
  11 C11    220.3077 152.8325 177.0740   C.3      778 ligands_prepared   0.0000
  12 C12    219.8952 153.6460 175.8421   C.3      778 ligands_prepared   0.0000
  13 C13    218.7953 152.9861 175.0848   C.ar     778 ligands_prepared   0.0000
  14 C14    217.4684 153.4017 175.2318   C.ar     778 ligands_prepared   0.0000
  15 C15    216.4711 152.7649 174.5005   C.ar     778 ligands_prepared   0.0000
  16 C16    216.8293 151.7191 173.6407   C.ar     778 ligands_prepared   0.0000
  17 N17    218.1032 151.3000 173.5048   N.ar     778 ligands_prepared   0.0000
  18 C18    219.0657 151.9205 174.2127   C.ar     778 ligands_prepared   0.0000
  19 C19    224.4623 153.5640 177.0886   C.2      778 ligands_prepared   0.0000
  20 C20    224.2510 154.6188 176.2494   C.2      778 ligands_prepared   0.0000
  21 C21    225.0970 155.6866 176.7310   C.ar     778 ligands_prepared   0.0000
  22 C22    225.3681 156.9902 176.3190   C.ar     778 ligands_prepared   0.0000
  23 C23    226.2861 157.6999 177.0856   C.ar     778 ligands_prepared   0.0000
  24 O24    226.6436 158.9731 176.7826   O.3      778 ligands_prepared   0.0000
  25 C25    226.9278 157.1795 178.2329   C.ar     778 ligands_prepared   0.0000
  26 C26    226.6666 155.8824 178.6414   C.ar     778 ligands_prepared   0.0000
  27 C27    225.7585 155.1649 177.8707   C.ar     778 ligands_prepared   0.0000
  28 O28    225.3758 153.8542 178.0993   O.3      778 ligands_prepared   0.0000
  29 H29    222.1952 151.0801 177.2183   H        778 ligands_prepared   0.0000
  30 H30    222.1675 154.0146 176.8743   H        778 ligands_prepared   0.0000
  31 H31    222.8348 153.7847 179.3202   H        778 ligands_prepared   0.0000
  32 H32    221.1243 152.8566 180.9311   H        778 ligands_prepared   0.0000
  33 H33    221.7825 151.5906 179.9191   H        778 ligands_prepared   0.0000
  34 H34    219.6633 151.1199 179.0284   H        778 ligands_prepared   0.0000
  35 H35    218.9875 152.2801 180.1969   H        778 ligands_prepared   0.0000
  36 H36    218.3754 152.9276 177.9388   H        778 ligands_prepared   0.0000
  37 H37    219.0936 155.2278 177.9464   H        778 ligands_prepared   0.0000
  38 H38    218.8181 154.6705 179.6119   H        778 ligands_prepared   0.0000
  39 H39    221.0113 155.2957 180.1035   H        778 ligands_prepared   0.0000
  40 H40    221.3493 155.6555 178.4203   H        778 ligands_prepared   0.0000
  41 H41    220.2180 151.7343 176.8385   H        778 ligands_prepared   0.0000
  42 H42    219.6370 154.6921 176.1216   H        778 ligands_prepared   0.0000
  43 H43    220.7972 153.7711 175.1851   H        778 ligands_prepared   0.0000
  44 H44    217.2170 154.2145 175.9195   H        778 ligands_prepared   0.0000
  45 H45    215.4287 153.0716 174.5945   H        778 ligands_prepared   0.0000
  46 H46    216.0778 151.1887 173.0364   H        778 ligands_prepared   0.0000
  47 H47    220.0884 151.5426 174.0707   H        778 ligands_prepared   0.0000
  48 H48    223.6002 154.6779 175.3938   H        778 ligands_prepared   0.0000
  49 H49    224.8834 157.4233 175.4464   H        778 ligands_prepared   0.0000
  50 H50    227.4202 159.2966 177.3225   H        778 ligands_prepared   0.0000
  51 H51    227.6257 157.8139 178.7844   H        778 ligands_prepared   0.0000
  52 H52    227.1460 155.4445 179.5177   H        778 ligands_prepared   0.0000
@<TRIPOS>BOND
   1  1  2    2
   2  2  3   am
   3  2 19    1
   4  3  4    1
   5  3 29    1
   6  4  5    1
   7  4 11    1
   8  4 30    1
   9  5  6    1
  10  5 10    1
  11  5 31    1
  12  6  7    1
  13  6 32    1
  14  6 33    1
  15  7  8    1
  16  7 34    1
  17  7 35    1
  18  8  9    1
  19  8 11    1
  20  8 36    1
  21  9 10    1
  22  9 37    1
  23  9 38    1
  24 10 39    1
  25 10 40    1
  26 11 12    1
  27 11 41    1
  28 12 13    1
  29 12 42    1
  30 12 43    1
  31 13 14   ar
  32 13 18   ar
  33 14 15   ar
  34 14 44    1
  35 15 16   ar
  36 15 45    1
  37 16 17   ar
  38 16 46    1
  39 17 18   ar
  40 18 47    1
  41 19 20    2
  42 19 28    1
  43 20 21    1
  44 20 48    1
  45 21 22   ar
  46 21 27   ar
  47 22 23   ar
  48 22 49    1
  49 23 24    1
  50 23 25   ar
  51 24 50    1
  52 25 26   ar
  53 25 51    1
  54 26 27   ar
  55 26 52    1
  56 27 28    1
