@<TRIPOS>MOLECULE
CHEMBL3037928_LIG
31 33 1 0 0
SMALL
USER_CHARGES

@<TRIPOS>ATOM
   1 O1     221.2851 152.0134 177.0604   O.2      778 ligands_prepared   0.0000
   2 C2     220.3696 152.8044 177.1816   C.2      778 ligands_prepared   0.0000
   3 C3     219.9754 153.2482 178.5119   C.2      778 ligands_prepared   0.0000
   4 C4     218.8025 153.3867 179.2171   C.2      778 ligands_prepared   0.0000
   5 C5     219.1604 153.8793 180.5156   C.2      778 ligands_prepared   0.0000
   6 C6     220.5292 154.0162 180.5131   C.2      778 ligands_prepared   0.0000
   7 O7     221.0529 153.6374 179.3098   O.3      778 ligands_prepared   0.0000
   8 C8     219.6056 153.3420 175.9956   C.3      778 ligands_prepared   0.0000
   9 C9     219.9339 152.4981 174.6219   C.3      778 ligands_prepared   0.0000
  10 C10    218.6373 152.4340 173.8058   C.3      778 ligands_prepared   0.0000
  11 C11    218.2443 151.0025 173.3998   C.3      778 ligands_prepared   0.0000
  12 N12    217.0887 150.6025 174.2927   N.4      778 ligands_prepared   1.0000
  13 C13    216.3905 151.8925 174.6649   C.3      778 ligands_prepared   0.0000
  14 C14    217.4987 152.9530 174.7371   C.3      778 ligands_prepared   0.0000
  15 C15    218.0968 153.1004 176.1474   C.3      778 ligands_prepared   0.0000
  16 H16    217.7980 153.1723 178.8876   H        778 ligands_prepared   0.0000
  17 H17    218.4773 154.0879 181.3162   H        778 ligands_prepared   0.0000
  18 H18    221.2665 154.3420 181.2203   H        778 ligands_prepared   0.0000
  19 H19    219.8086 154.4349 175.8822   H        778 ligands_prepared   0.0000
  20 H20    220.3253 151.4928 174.8634   H        778 ligands_prepared   0.0000
  21 H21    220.7380 152.9830 174.0266   H        778 ligands_prepared   0.0000
  22 H22    218.7235 153.0719 172.8947   H        778 ligands_prepared   0.0000
  23 H23    217.9298 150.9511 172.3327   H        778 ligands_prepared   0.0000
  24 H24    219.0753 150.2781 173.5160   H        778 ligands_prepared   0.0000
  25 H25    216.4492 149.9272 173.8293   H        778 ligands_prepared   0.0000
  26 H26    217.4591 150.1540 175.1588   H        778 ligands_prepared   0.0000
  27 H27    215.8419 151.7660 175.6234   H        778 ligands_prepared   0.0000
  28 H28    215.6237 152.1454 173.8932   H        778 ligands_prepared   0.0000
  29 H29    217.1116 153.9354 174.3781   H        778 ligands_prepared   0.0000
  30 H30    217.6239 153.9468 176.6795   H        778 ligands_prepared   0.0000
  31 H31    217.8884 152.2112 176.7708   H        778 ligands_prepared   0.0000
@<TRIPOS>BOND
   1  1  2    2
   2  2  3    1
   3  2  8    1
   4  3  4    2
   5  3  7    1
   6  4  5    1
   7  4 16    1
   8  5  6    2
   9  5 17    1
  10  6  7    1
  11  6 18    1
  12  9  8    1
  13  8 15    1
  14  8 19    1
  15  9 10    1
  16  9 20    1
  17  9 21    1
  18 10 11    1
  19 10 14    1
  20 10 22    1
  21 11 12    1
  22 11 23    1
  23 11 24    1
  24 12 13    1
  25 12 25    1
  26 12 26    1
  27 13 14    1
  28 13 27    1
  29 13 28    1
  30 14 15    1
  31 14 29    1
  32 15 30    1
  33 15 31    1
