@<TRIPOS>MOLECULE
CHEMBL2177539_ncw_LIG
35 37 1 0 0
SMALL
USER_CHARGES

@<TRIPOS>ATOM
   1 C1     216.9236 149.3954 173.6872   C.3      778 ligands_prepared   0.0000
   2 N2     217.5936 150.6899 174.0371   N.4      778 ligands_prepared   1.0000
   3 C3     218.4093 150.9989 173.1409   C.3      778 ligands_prepared   0.0000
   4 C4     218.8137 152.4678 173.4079   C.3      778 ligands_prepared   0.0000
   5 C5     219.4582 152.5608 174.7598   C.2      778 ligands_prepared   0.0000
   6 C6     218.8015 152.9765 175.8540   C.2      778 ligands_prepared   0.0000
   7 C7     219.4756 153.0669 177.1502   C.ar     778 ligands_prepared   0.0000
   8 C8     218.7901 153.4181 178.3160   C.ar     778 ligands_prepared   0.0000
   9 C9     219.4855 153.5016 179.5192   C.ar     778 ligands_prepared   0.0000
  10 C10    220.8578 153.2302 179.5224   C.ar     778 ligands_prepared   0.0000
  11 N11    221.5290 152.8804 178.4058   N.ar     778 ligands_prepared   0.0000
  12 C12    220.8524 152.7973 177.2453   C.ar     778 ligands_prepared   0.0000
  13 C13    217.3673 153.4099 175.8277   C.3      778 ligands_prepared   0.0000
  14 C14    216.6672 152.9924 174.5219   C.3      778 ligands_prepared   0.0000
  15 C15    217.5783 153.3757 173.3482   C.3      778 ligands_prepared   0.0000
  16 C16    216.3990 151.4694 174.5411   C.3      778 ligands_prepared   0.0000
  17 H17    216.3793 149.4615 172.7280   H        778 ligands_prepared   0.0000
  18 H18    216.2013 149.1041 174.4736   H        778 ligands_prepared   0.0000
  19 H19    217.6675 148.5802 173.6025   H        778 ligands_prepared   0.0000
  20 H20    218.1185 150.5740 174.9460   H        778 ligands_prepared   0.0000
  21 H21    219.2979 150.3287 173.1973   H        778 ligands_prepared   0.0000
  22 H22    217.9991 150.8859 172.1100   H        778 ligands_prepared   0.0000
  23 H23    219.5485 152.7837 172.6212   H        778 ligands_prepared   0.0000
  24 H24    220.5041 152.2528 174.7914   H        778 ligands_prepared   0.0000
  25 H25    217.7180 153.6243 178.2841   H        778 ligands_prepared   0.0000
  26 H26    218.9717 153.7772 180.4413   H        778 ligands_prepared   0.0000
  27 H27    221.4522 153.2951 180.4441   H        778 ligands_prepared   0.0000
  28 H28    221.4357 152.5061 176.3608   H        778 ligands_prepared   0.0000
  29 H29    216.8080 153.0145 176.7027   H        778 ligands_prepared   0.0000
  30 H30    217.3172 154.5177 175.9405   H        778 ligands_prepared   0.0000
  31 H31    215.6935 153.5327 174.4369   H        778 ligands_prepared   0.0000
  32 H32    217.0580 153.3037 172.3758   H        778 ligands_prepared   0.0000
  33 H33    217.8777 154.4406 173.4257   H        778 ligands_prepared   0.0000
  34 H34    216.1460 151.1206 175.5691   H        778 ligands_prepared   0.0000
  35 H35    215.5184 151.2212 173.9045   H        778 ligands_prepared   0.0000
@<TRIPOS>BOND
   1  1  2    1
   2  1 17    1
   3  1 18    1
   4  1 19    1
   5  3  2    1
   6  2 16    1
   7  2 20    1
   8  3  4    1
   9  3 21    1
  10  3 22    1
  11  4  5    1
  12  4 15    1
  13  4 23    1
  14  5  6    2
  15  5 24    1
  16  6  7    1
  17  6 13    1
  18  7  8   ar
  19  7 12   ar
  20  8  9   ar
  21  8 25    1
  22  9 10   ar
  23  9 26    1
  24 10 11   ar
  25 10 27    1
  26 11 12   ar
  27 12 28    1
  28 13 14    1
  29 13 29    1
  30 13 30    1
  31 14 15    1
  32 14 16    1
  33 14 31    1
  34 15 32    1
  35 15 33    1
  36 16 34    1
  37 16 35    1
