@<TRIPOS>MOLECULE
CHEMBL2180251_LIG
54 58 1 0 0
SMALL
USER_CHARGES

@<TRIPOS>ATOM
   1 C1     226.5018 159.1278 176.6797   C.3      778 ligands_prepared   0.0000
   2 C2     226.2469 157.7131 177.0669   C.ar     778 ligands_prepared   0.0000
   3 C3     226.8934 157.1900 178.2075   C.ar     778 ligands_prepared   0.0000
   4 C4     226.6880 155.8832 178.6291   C.ar     778 ligands_prepared   0.0000
   5 C5     225.8130 155.1310 177.8586   C.ar     778 ligands_prepared   0.0000
   6 O6     225.4725 153.8141 178.0957   O.3      778 ligands_prepared   0.0000
   7 C7     224.5680 153.4830 177.0809   C.2      778 ligands_prepared   0.0000
   8 C8     224.0823 152.0976 177.1351   C.2      778 ligands_prepared   0.0000
   9 O9     224.8125 151.1416 176.9155   O.2      778 ligands_prepared   0.0000
  10 N10    222.7574 151.9393 177.4411   N.am     778 ligands_prepared   0.0000
  11 C11    221.9041 153.1022 177.6683   C.3      778 ligands_prepared   0.0000
  12 C12    221.8588 153.4559 179.1764   C.3      778 ligands_prepared   0.0000
  13 C13    221.1033 154.7851 179.3141   C.3      778 ligands_prepared   0.0000
  14 C14    219.7046 154.6442 178.6962   C.3      778 ligands_prepared   0.0000
  15 N15    219.4615 153.2101 178.2648   N.4      778 ligands_prepared   1.0000
  16 C16    219.6516 152.2903 179.4584   C.3      778 ligands_prepared   0.0000
  17 C17    221.1003 152.3767 179.9605   C.3      778 ligands_prepared   0.0000
  18 C18    220.4494 152.7941 177.1786   C.3      778 ligands_prepared   0.0000
  19 C19    220.1414 153.5130 175.8626   C.3      778 ligands_prepared   0.0000
  20 C20    219.0066 152.8795 175.1305   C.ar     778 ligands_prepared   0.0000
  21 C21    217.6813 153.0924 175.5181   C.ar     778 ligands_prepared   0.0000
  22 C22    216.6575 152.4835 174.7991   C.ar     778 ligands_prepared   0.0000
  23 C23    216.9898 151.6717 173.7071   C.ar     778 ligands_prepared   0.0000
  24 N24    218.2662 151.4486 173.3366   N.ar     778 ligands_prepared   0.0000
  25 C25    219.2545 152.0384 174.0359   C.ar     778 ligands_prepared   0.0000
  26 C26    224.3344 154.5245 176.2320   C.2      778 ligands_prepared   0.0000
  27 C27    225.1426 155.6233 176.7139   C.ar     778 ligands_prepared   0.0000
  28 C28    225.3701 156.9374 176.3128   C.ar     778 ligands_prepared   0.0000
  29 H29    226.3709 159.3032 175.6020   H        778 ligands_prepared   0.0000
  30 H30    227.5210 159.4567 176.9334   H        778 ligands_prepared   0.0000
  31 H31    225.8089 159.8102 177.1998   H        778 ligands_prepared   0.0000
  32 H32    227.5745 157.8322 178.7718   H        778 ligands_prepared   0.0000
  33 H33    227.1820 155.4685 179.5053   H        778 ligands_prepared   0.0000
  34 H34    222.3142 151.0190 177.4433   H        778 ligands_prepared   0.0000
  35 H35    222.3229 153.9789 177.0950   H        778 ligands_prepared   0.0000
  36 H36    222.8978 153.5603 179.5725   H        778 ligands_prepared   0.0000
  37 H37    221.0287 155.0691 180.3842   H        778 ligands_prepared   0.0000
  38 H38    221.6609 155.6157 178.8370   H        778 ligands_prepared   0.0000
  39 H39    219.5756 155.3167 177.8186   H        778 ligands_prepared   0.0000
  40 H40    218.9104 154.9312 179.4252   H        778 ligands_prepared   0.0000
  41 H41    218.4825 153.1214 177.8911   H        778 ligands_prepared   0.0000
  42 H42    218.9249 152.5837 180.2513   H        778 ligands_prepared   0.0000
  43 H43    219.3795 151.2510 179.1605   H        778 ligands_prepared   0.0000
  44 H44    221.6024 151.3910 179.8838   H        778 ligands_prepared   0.0000
  45 H45    221.1179 152.6116 181.0448   H        778 ligands_prepared   0.0000
  46 H46    220.3267 151.6831 177.0349   H        778 ligands_prepared   0.0000
  47 H47    219.9634 154.6003 176.0284   H        778 ligands_prepared   0.0000
  48 H48    221.0652 153.5005 175.2258   H        778 ligands_prepared   0.0000
  49 H49    217.4507 153.7286 176.3772   H        778 ligands_prepared   0.0000
  50 H50    215.6135 152.6326 175.0766   H        778 ligands_prepared   0.0000
  51 H51    216.2175 151.1745 173.1029   H        778 ligands_prepared   0.0000
  52 H52    220.2800 151.8191 173.7029   H        778 ligands_prepared   0.0000
  53 H53    223.6916 154.5507 175.3680   H        778 ligands_prepared   0.0000
  54 H54    224.8718 157.3404 175.4307   H        778 ligands_prepared   0.0000
@<TRIPOS>BOND
   1  1  2    1
   2  1 29    1
   3  1 30    1
   4  1 31    1
   5  2  3   ar
   6  2 28   ar
   7  3  4   ar
   8  3 32    1
   9  4  5   ar
  10  4 33    1
  11  5  6    1
  12  5 27   ar
  13  6  7    1
  14  7  8    1
  15  7 26    2
  16  8  9    2
  17  8 10   am
  18 10 11    1
  19 10 34    1
  20 11 12    1
  21 11 18    1
  22 11 35    1
  23 12 13    1
  24 12 17    1
  25 12 36    1
  26 13 14    1
  27 13 37    1
  28 13 38    1
  29 14 15    1
  30 14 39    1
  31 14 40    1
  32 15 16    1
  33 15 18    1
  34 15 41    1
  35 16 17    1
  36 16 42    1
  37 16 43    1
  38 17 44    1
  39 17 45    1
  40 18 19    1
  41 18 46    1
  42 19 20    1
  43 19 47    1
  44 19 48    1
  45 20 21   ar
  46 20 25   ar
  47 21 22   ar
  48 21 49    1
  49 22 23   ar
  50 22 50    1
  51 23 24   ar
  52 23 51    1
  53 24 25   ar
  54 25 52    1
  55 26 27    1
  56 26 53    1
  57 27 28   ar
  58 28 54    1
