@<TRIPOS>MOLECULE
CHEMBL2179867_LIG
54 58 1 0 0
SMALL
USER_CHARGES

@<TRIPOS>ATOM
   1 O1     224.1473 152.1235 177.4718   O.2      778 ligands_prepared   0.0000
   2 C2     223.4658 153.0992 177.1877   C.2      778 ligands_prepared   0.0000
   3 N3     224.0241 154.2324 176.6575   N.am     778 ligands_prepared   0.0000
   4 C4     225.4699 154.3378 176.4886   C.3      778 ligands_prepared   0.0000
   5 C5     226.2045 154.0078 177.8126   C.3      778 ligands_prepared   0.0000
   6 C6     227.7061 153.9692 177.4959   C.3      778 ligands_prepared   0.0000
   7 C7     228.1546 155.3362 176.9581   C.3      778 ligands_prepared   0.0000
   8 N8     226.9849 156.3011 176.9399   N.4      778 ligands_prepared   1.0000
   9 C9     226.4531 156.4476 178.3545   C.3      778 ligands_prepared   0.0000
  10 C10    225.9395 155.0935 178.8633   C.3      778 ligands_prepared   0.0000
  11 C11    225.8582 155.7868 176.0460   C.3      778 ligands_prepared   0.0000
  12 C12    226.2706 155.8004 174.5700   C.3      778 ligands_prepared   0.0000
  13 C13    227.1003 156.9930 174.2405   C.ar     778 ligands_prepared   0.0000
  14 C14    228.4224 156.8560 173.8117   C.ar     778 ligands_prepared   0.0000
  15 C15    229.1703 157.9963 173.5331   C.ar     778 ligands_prepared   0.0000
  16 C16    228.5632 159.2491 173.6789   C.ar     778 ligands_prepared   0.0000
  17 N17    227.2808 159.3896 174.0723   N.ar     778 ligands_prepared   0.0000
  18 C18    226.5631 158.2851 174.3485   C.ar     778 ligands_prepared   0.0000
  19 C19    222.0186 153.1291 177.4212   C.2      778 ligands_prepared   0.0000
  20 C20    221.2362 153.4123 178.5111   C.2      778 ligands_prepared   0.0000
  21 C21    219.8748 153.3115 178.0655   C.2      778 ligands_prepared   0.0000
  22 C22    219.9210 152.9782 176.7337   C.2      778 ligands_prepared   0.0000
  23 C23    218.9437 152.7563 175.6850   C.ar     778 ligands_prepared   0.0000
  24 C24    217.5983 153.1102 175.8561   C.ar     778 ligands_prepared   0.0000
  25 C25    216.7068 152.8649 174.8119   C.ar     778 ligands_prepared   0.0000
  26 C26    217.1760 152.2786 173.6399   C.ar     778 ligands_prepared   0.0000
  27 C27    218.5365 151.9510 173.5496   C.ar     778 ligands_prepared   0.0000
  28 N28    219.4077 152.1828 174.5461   N.ar     778 ligands_prepared   0.0000
  29 O29    221.2351 152.8494 176.3117   O.3      778 ligands_prepared   0.0000
  30 H30    223.4559 155.0245 176.3672   H        778 ligands_prepared   0.0000
  31 H31    225.7970 153.6032 175.6949   H        778 ligands_prepared   0.0000
  32 H32    225.8668 153.0141 178.1946   H        778 ligands_prepared   0.0000
  33 H33    228.2816 153.7005 178.4056   H        778 ligands_prepared   0.0000
  34 H34    227.9371 153.1664 176.7659   H        778 ligands_prepared   0.0000
  35 H35    228.5839 155.2544 175.9345   H        778 ligands_prepared   0.0000
  36 H36    228.9627 155.7740 177.5924   H        778 ligands_prepared   0.0000
  37 H37    227.3039 157.2383 176.5796   H        778 ligands_prepared   0.0000
  38 H38    227.2712 156.8430 179.0020   H        778 ligands_prepared   0.0000
  39 H39    225.6533 157.2234 178.3643   H        778 ligands_prepared   0.0000
  40 H40    224.8643 155.1553 179.1219   H        778 ligands_prepared   0.0000
  41 H41    226.4354 154.8256 179.8202   H        778 ligands_prepared   0.0000
  42 H42    224.9854 156.4833 176.1953   H        778 ligands_prepared   0.0000
  43 H43    225.3395 155.7828 173.9457   H        778 ligands_prepared   0.0000
  44 H44    226.7851 154.8556 174.2826   H        778 ligands_prepared   0.0000
  45 H45    228.8681 155.8656 173.6873   H        778 ligands_prepared   0.0000
  46 H46    230.2086 157.9149 173.2101   H        778 ligands_prepared   0.0000
  47 H47    229.1114 160.1801 173.4725   H        778 ligands_prepared   0.0000
  48 H48    225.5220 158.4469 174.6628   H        778 ligands_prepared   0.0000
  49 H49    221.5558 153.6633 179.5084   H        778 ligands_prepared   0.0000
  50 H50    219.0001 153.4745 178.6709   H        778 ligands_prepared   0.0000
  51 H51    217.2518 153.5654 176.7840   H        778 ligands_prepared   0.0000
  52 H52    215.6509 153.1320 174.9197   H        778 ligands_prepared   0.0000
  53 H53    216.5031 152.0774 172.8047   H        778 ligands_prepared   0.0000
  54 H54    218.9548 151.4811 172.6463   H        778 ligands_prepared   0.0000
@<TRIPOS>BOND
   1  1  2    2
   2  2  3   am
   3  2 19    1
   4  3  4    1
   5  3 30    1
   6  4  5    1
   7  4 11    1
   8  4 31    1
   9  5  6    1
  10  5 10    1
  11  5 32    1
  12  6  7    1
  13  6 33    1
  14  6 34    1
  15  7  8    1
  16  7 35    1
  17  7 36    1
  18  8  9    1
  19  8 11    1
  20  8 37    1
  21  9 10    1
  22  9 38    1
  23  9 39    1
  24 10 40    1
  25 10 41    1
  26 11 12    1
  27 11 42    1
  28 12 13    1
  29 12 43    1
  30 12 44    1
  31 13 14   ar
  32 13 18   ar
  33 14 15   ar
  34 14 45    1
  35 15 16   ar
  36 15 46    1
  37 16 17   ar
  38 16 47    1
  39 17 18   ar
  40 18 48    1
  41 19 20    2
  42 19 29    1
  43 20 21    1
  44 20 49    1
  45 21 22    2
  46 21 50    1
  47 22 23    1
  48 22 29    1
  49 23 24   ar
  50 23 28   ar
  51 24 25   ar
  52 24 51    1
  53 25 26   ar
  54 25 52    1
  55 26 27   ar
  56 26 53    1
  57 27 28   ar
  58 27 54    1
