@<TRIPOS>MOLECULE
CHEMBL2179848_LIG
48 51 1 0 0
SMALL
USER_CHARGES

@<TRIPOS>ATOM
   1 O1     225.8932 161.9114 173.0190   O.2      778 ligands_prepared   0.0000
   2 C2     224.9726 161.1103 172.9888   C.2      778 ligands_prepared   0.0000
   3 N3     225.0568 159.8910 173.6077   N.am     778 ligands_prepared   0.0000
   4 C4     226.2216 159.5426 174.4167   C.3      778 ligands_prepared   0.0000
   5 C5     227.5272 159.7408 173.6079   C.3      778 ligands_prepared   0.0000
   6 C6     228.7010 159.4863 174.5630   C.3      778 ligands_prepared   0.0000
   7 C7     228.6121 158.0561 175.1114   C.3      778 ligands_prepared   0.0000
   8 N8     227.4237 157.3287 174.5107   N.4      778 ligands_prepared   1.0000
   9 C9     227.5774 157.2998 173.0015   C.3      778 ligands_prepared   0.0000
  10 C10    227.6073 158.7337 172.4518   C.3      778 ligands_prepared   0.0000
  11 C11    226.1134 158.0377 174.8400   C.3      778 ligands_prepared   0.0000
  12 C12    225.7685 157.8890 176.3237   C.3      778 ligands_prepared   0.0000
  13 C13    225.8290 156.4616 176.7513   C.ar     778 ligands_prepared   0.0000
  14 C14    224.9174 155.5282 176.2505   C.ar     778 ligands_prepared   0.0000
  15 C15    225.0134 154.2000 176.6518   C.ar     778 ligands_prepared   0.0000
  16 C16    226.0189 153.8431 177.5597   C.ar     778 ligands_prepared   0.0000
  17 N17    226.8868 154.7411 178.0664   N.ar     778 ligands_prepared   0.0000
  18 C18    226.7924 156.0254 177.6730   C.ar     778 ligands_prepared   0.0000
  19 C19    223.6699 161.3903 172.3265   C.ar     778 ligands_prepared   0.0000
  20 C20    222.4775 160.9256 172.8790   C.ar     778 ligands_prepared   0.0000
  21 C21    221.2661 161.2038 172.2445   C.ar     778 ligands_prepared   0.0000
  22 C22    221.2813 161.9442 171.0702   C.ar     778 ligands_prepared   0.0000
  23 Cl23   219.7945 162.2941 170.2992   Cl       778 ligands_prepared   0.0000
  24 C24    222.4533 162.4169 170.4854   C.ar     778 ligands_prepared   0.0000
  25 C25    223.6384 162.1196 171.1409   C.ar     778 ligands_prepared   0.0000
  26 Cl26   225.1158 162.6660 170.4793   Cl       778 ligands_prepared   0.0000
  27 H27    224.2934 159.2153 173.5644   H        778 ligands_prepared   0.0000
  28 H28    226.2435 160.1972 175.3351   H        778 ligands_prepared   0.0000
  29 H29    227.5705 160.7837 173.2120   H        778 ligands_prepared   0.0000
  30 H30    228.7127 160.2256 175.3883   H        778 ligands_prepared   0.0000
  31 H31    229.6639 159.6406 174.0319   H        778 ligands_prepared   0.0000
  32 H32    228.5247 158.0484 176.2213   H        778 ligands_prepared   0.0000
  33 H33    229.5346 157.4743 174.8711   H        778 ligands_prepared   0.0000
  34 H34    227.3833 156.3480 174.8912   H        778 ligands_prepared   0.0000
  35 H35    228.5112 156.7465 172.7489   H        778 ligands_prepared   0.0000
  36 H36    226.7442 156.7060 172.5617   H        778 ligands_prepared   0.0000
  37 H37    228.5362 158.9021 171.8676   H        778 ligands_prepared   0.0000
  38 H38    226.7909 158.8915 171.7194   H        778 ligands_prepared   0.0000
  39 H39    225.3173 157.5335 174.2260   H        778 ligands_prepared   0.0000
  40 H40    224.7366 158.2975 176.4955   H        778 ligands_prepared   0.0000
  41 H41    226.4048 158.5417 176.9626   H        778 ligands_prepared   0.0000
  42 H42    224.1304 155.8411 175.5620   H        778 ligands_prepared   0.0000
  43 H43    224.3183 153.4494 176.2726   H        778 ligands_prepared   0.0000
  44 H44    226.1394 152.8056 177.9048   H        778 ligands_prepared   0.0000
  45 H45    227.5110 156.7213 178.1273   H        778 ligands_prepared   0.0000
  46 H46    222.4920 160.3490 173.8114   H        778 ligands_prepared   0.0000
  47 H47    220.3272 160.8415 172.6803   H        778 ligands_prepared   0.0000
  48 H48    222.4421 163.0008 169.5592   H        778 ligands_prepared   0.0000
@<TRIPOS>BOND
   1  1  2    2
   2  2  3   am
   3  2 19    1
   4  3  4    1
   5  3 27    1
   6  4  5    1
   7  4 11    1
   8  4 28    1
   9  5  6    1
  10  5 10    1
  11  5 29    1
  12  6  7    1
  13  6 30    1
  14  6 31    1
  15  7  8    1
  16  7 32    1
  17  7 33    1
  18  8  9    1
  19  8 11    1
  20  8 34    1
  21  9 10    1
  22  9 35    1
  23  9 36    1
  24 10 37    1
  25 10 38    1
  26 11 12    1
  27 11 39    1
  28 12 13    1
  29 12 40    1
  30 12 41    1
  31 13 14   ar
  32 13 18   ar
  33 14 15   ar
  34 14 42    1
  35 15 16   ar
  36 15 43    1
  37 16 17   ar
  38 16 44    1
  39 17 18   ar
  40 18 45    1
  41 19 20   ar
  42 19 25   ar
  43 20 21   ar
  44 20 46    1
  45 21 22   ar
  46 21 47    1
  47 22 23    1
  48 22 24   ar
  49 24 25   ar
  50 24 48    1
  51 25 26    1
