@<TRIPOS>MOLECULE
CHEMBL1257896_LIG
48 51 1 0 0
SMALL
USER_CHARGES

@<TRIPOS>ATOM
   1 O1     222.2404 152.8544 176.3871   O.2      778 ligands_prepared   0.0000
   2 C2     222.2877 153.3695 177.4977   C.2      778 ligands_prepared   0.0000
   3 N3     223.4311 154.0198 177.9007   N.am     778 ligands_prepared   0.0000
   4 C4     224.4981 154.2826 176.9420   C.3      778 ligands_prepared   0.0000
   5 C5     224.9863 152.9825 176.2542   C.3      778 ligands_prepared   0.0000
   6 C6     225.7901 152.1220 177.2384   C.3      778 ligands_prepared   0.0000
   7 C7     227.0613 152.8741 177.6599   C.3      778 ligands_prepared   0.0000
   8 N8     227.0007 154.3093 177.1686   N.4      778 ligands_prepared   1.0000
   9 C9     227.0192 154.3138 175.6524   C.3      778 ligands_prepared   0.0000
  10 C10    225.9085 153.4067 175.1015   C.3      778 ligands_prepared   0.0000
  11 C11    225.7103 154.9303 177.6929   C.3      778 ligands_prepared   0.0000
  12 C12    225.7489 156.4554 177.5356   C.3      778 ligands_prepared   0.0000
  13 C13    226.5948 157.0622 178.6074   C.ar     778 ligands_prepared   0.0000
  14 C14    227.1002 156.2891 179.6552   C.ar     778 ligands_prepared   0.0000
  15 C15    227.8736 156.8969 180.6409   C.ar     778 ligands_prepared   0.0000
  16 C16    228.1393 158.2662 180.5355   C.ar     778 ligands_prepared   0.0000
  17 N17    227.6738 159.0175 179.5175   N.ar     778 ligands_prepared   0.0000
  18 C18    226.9046 158.4328 178.5805   C.ar     778 ligands_prepared   0.0000
  19 C19    221.1303 153.3455 178.4220   C.ar     778 ligands_prepared   0.0000
  20 C20    219.8778 153.0393 177.8855   C.ar     778 ligands_prepared   0.0000
  21 C21    218.7471 153.0954 178.6967   C.ar     778 ligands_prepared   0.0000
  22 C22    218.8696 153.4604 180.0372   C.ar     778 ligands_prepared   0.0000
  23 C23    220.1216 153.7643 180.5698   C.ar     778 ligands_prepared   0.0000
  24 C24    221.2562 153.7083 179.7639   C.ar     778 ligands_prepared   0.0000
  25 H25    223.5346 154.4074 178.8351   H        778 ligands_prepared   0.0000
  26 H26    224.1192 154.9946 176.1527   H        778 ligands_prepared   0.0000
  27 H27    224.1119 152.4090 175.8658   H        778 ligands_prepared   0.0000
  28 H28    226.0532 151.1512 176.7723   H        778 ligands_prepared   0.0000
  29 H29    225.1786 151.8519 178.1223   H        778 ligands_prepared   0.0000
  30 H30    227.1902 152.8751 178.7669   H        778 ligands_prepared   0.0000
  31 H31    227.9775 152.3951 177.2465   H        778 ligands_prepared   0.0000
  32 H32    227.8311 154.8487 177.5358   H        778 ligands_prepared   0.0000
  33 H33    226.9103 155.3627 175.2923   H        778 ligands_prepared   0.0000
  34 H34    228.0238 153.9769 175.3097   H        778 ligands_prepared   0.0000
  35 H35    226.3390 152.5119 174.6079   H        778 ligands_prepared   0.0000
  36 H36    225.3403 153.9270 174.3039   H        778 ligands_prepared   0.0000
  37 H37    225.6563 154.6780 178.7903   H        778 ligands_prepared   0.0000
  38 H38    226.1594 156.7366 176.5340   H        778 ligands_prepared   0.0000
  39 H39    224.7217 156.8858 177.5400   H        778 ligands_prepared   0.0000
  40 H40    226.8916 155.2169 179.7031   H        778 ligands_prepared   0.0000
  41 H41    228.2651 156.3182 181.4772   H        778 ligands_prepared   0.0000
  42 H42    228.7510 158.7899 181.2828   H        778 ligands_prepared   0.0000
  43 H43    226.5271 159.0877 177.7841   H        778 ligands_prepared   0.0000
  44 H44    219.7914 152.7700 176.8299   H        778 ligands_prepared   0.0000
  45 H45    217.7660 152.8602 178.2815   H        778 ligands_prepared   0.0000
  46 H46    217.9826 153.5111 180.6727   H        778 ligands_prepared   0.0000
  47 H47    220.2167 154.0538 181.6183   H        778 ligands_prepared   0.0000
  48 H48    222.2279 153.9646 180.1888   H        778 ligands_prepared   0.0000
@<TRIPOS>BOND
   1  1  2    2
   2  2  3   am
   3  2 19    1
   4  3  4    1
   5  3 25    1
   6  4  5    1
   7  4 11    1
   8  4 26    1
   9  5  6    1
  10  5 10    1
  11  5 27    1
  12  6  7    1
  13  6 28    1
  14  6 29    1
  15  7  8    1
  16  7 30    1
  17  7 31    1
  18  8  9    1
  19  8 11    1
  20  8 32    1
  21  9 10    1
  22  9 33    1
  23  9 34    1
  24 10 35    1
  25 10 36    1
  26 11 12    1
  27 11 37    1
  28 12 13    1
  29 12 38    1
  30 12 39    1
  31 13 14   ar
  32 13 18   ar
  33 14 15   ar
  34 14 40    1
  35 15 16   ar
  36 15 41    1
  37 16 17   ar
  38 16 42    1
  39 17 18   ar
  40 18 43    1
  41 19 20   ar
  42 19 24   ar
  43 20 21   ar
  44 20 44    1
  45 21 22   ar
  46 21 45    1
  47 22 23   ar
  48 22 46    1
  49 23 24   ar
  50 23 47    1
  51 24 48    1
