@<TRIPOS>MOLECULE
CHEMBL3037927_LIG
31 33 1 0 0
SMALL
USER_CHARGES

@<TRIPOS>ATOM
   1 O1     220.6297 152.0129 177.1076   O.2      778 ligands_prepared   0.0000
   2 C2     219.8727 152.9579 177.0104   C.2      778 ligands_prepared   0.0000
   3 C3     219.5543 153.7440 178.2312   C.3      778 ligands_prepared   0.0000
   4 C4     220.2798 153.4102 179.5146   C.3      778 ligands_prepared   0.0000
   5 C5     218.8101 153.1050 179.3784   C.3      778 ligands_prepared   0.0000
   6 C6     219.2640 153.3959 175.7005   C.3      778 ligands_prepared   0.0000
   7 C7     219.6943 152.5074 174.5706   C.3      778 ligands_prepared   0.0000
   8 C8     218.4960 152.3367 173.6207   C.3      778 ligands_prepared   0.0000
   9 C9     218.2234 150.8722 173.2404   C.3      778 ligands_prepared   0.0000
  10 N10    217.1735 150.3896 174.2192   N.4      778 ligands_prepared   1.0000
  11 C11    216.3073 151.5983 174.5130   C.3      778 ligands_prepared   0.0000
  12 C12    217.2326 152.8220 174.3928   C.3      778 ligands_prepared   0.0000
  13 C13    217.7231 153.3561 175.7486   C.3      778 ligands_prepared   0.0000
  14 H14    219.3575 154.8019 177.9873   H        778 ligands_prepared   0.0000
  15 H15    220.6189 154.2110 180.1707   H        778 ligands_prepared   0.0000
  16 H16    221.0052 152.5929 179.5201   H        778 ligands_prepared   0.0000
  17 H17    218.0781 153.6948 179.9322   H        778 ligands_prepared   0.0000
  18 H18    218.4725 152.0727 179.2979   H        778 ligands_prepared   0.0000
  19 H19    219.6013 154.4408 175.4805   H        778 ligands_prepared   0.0000
  20 H20    220.5335 152.9889 174.0314   H        778 ligands_prepared   0.0000
  21 H21    220.0915 151.5396 174.9217   H        778 ligands_prepared   0.0000
  22 H22    218.6502 152.9372 172.6995   H        778 ligands_prepared   0.0000
  23 H23    219.1259 150.2271 173.3004   H        778 ligands_prepared   0.0000
  24 H24    217.8317 150.7795 172.2021   H        778 ligands_prepared   0.0000
  25 H25    217.6516 150.0868 175.1107   H        778 ligands_prepared   0.0000
  26 H26    216.6281 149.5847 173.8571   H        778 ligands_prepared   0.0000
  27 H27    215.4700 151.6398 173.7799   H        778 ligands_prepared   0.0000
  28 H28    215.8445 151.4979 175.5181   H        778 ligands_prepared   0.0000
  29 H29    216.7110 153.6250 173.8311   H        778 ligands_prepared   0.0000
  30 H30    217.3379 152.7685 176.5972   H        778 ligands_prepared   0.0000
  31 H31    217.3341 154.3821 175.9052   H        778 ligands_prepared   0.0000
@<TRIPOS>BOND
   1  1  2    2
   2  2  3    1
   3  2  6    1
   4  3  4    1
   5  3  5    1
   6  3 14    1
   7  4  5    1
   8  4 15    1
   9  4 16    1
  10  5 17    1
  11  5 18    1
  12  7  6    1
  13  6 13    1
  14  6 19    1
  15  7  8    1
  16  7 20    1
  17  7 21    1
  18  8  9    1
  19  8 12    1
  20  8 22    1
  21  9 10    1
  22  9 23    1
  23  9 24    1
  24 10 11    1
  25 10 25    1
  26 10 26    1
  27 11 12    1
  28 11 27    1
  29 11 28    1
  30 12 13    1
  31 12 29    1
  32 13 30    1
  33 13 31    1
