@<TRIPOS>MOLECULE
CHEMBL225852_LIG
55 58 1 0 0
SMALL
USER_CHARGES

@<TRIPOS>ATOM
   1 C1     228.0953 163.6771 175.0760   C.3      778 ligands_prepared   0.0000
   2 O2     227.0606 162.7723 174.7017   O.3      778 ligands_prepared   0.0000
   3 C3     226.9725 161.6121 175.4009   C.ar     778 ligands_prepared   0.0000
   4 C4     227.7524 161.2610 176.4928   C.ar     778 ligands_prepared   0.0000
   5 C5     227.5556 160.0240 177.1106   C.ar     778 ligands_prepared   0.0000
   6 C6     226.6101 159.1172 176.6122   C.ar     778 ligands_prepared   0.0000
   7 C7     225.7895 159.4939 175.5418   C.ar     778 ligands_prepared   0.0000
   8 C8     225.9678 160.7260 174.9350   C.ar     778 ligands_prepared   0.0000
   9 O9     225.2363 161.2121 173.8932   O.3      778 ligands_prepared   0.0000
  10 C10    224.2770 160.3307 173.3199   C.3      778 ligands_prepared   0.0000
  11 C11    226.5360 157.7907 177.2262   C.ar     778 ligands_prepared   0.0000
  12 C12    226.1320 156.6588 176.5266   C.ar     778 ligands_prepared   0.0000
  13 O13    225.6029 156.7632 175.2684   O.3      778 ligands_prepared   0.0000
  14 C14    226.6052 156.9035 174.2595   C.3      778 ligands_prepared   0.0000
  15 C15    226.1914 155.3802 177.1331   C.ar     778 ligands_prepared   0.0000
  16 O16    225.7519 154.3765 176.3387   O.3      778 ligands_prepared   0.0000
  17 C17    225.6326 153.0871 176.9347   C.3      778 ligands_prepared   0.0000
  18 C18    226.6991 155.2378 178.4156   C.ar     778 ligands_prepared   0.0000
  19 C19    227.1280 156.3728 179.1122   C.ar     778 ligands_prepared   0.0000
  20 C20    226.9913 157.6368 178.5557   C.ar     778 ligands_prepared   0.0000
  21 C21    227.3490 158.9164 179.2696   C.3      778 ligands_prepared   0.0000
  22 C22    228.3255 159.6792 178.3518   C.3      778 ligands_prepared   0.0000
  23 N23    227.8503 158.6871 180.6954   N.4      778 ligands_prepared   1.0000
  24 C24    227.3024 159.8950 181.3973   C.3      778 ligands_prepared   0.0000
  25 C25    229.3543 158.7581 180.7755   C.3      778 ligands_prepared   0.0000
  26 C26    227.3708 157.3040 181.4034   C.3      778 ligands_prepared   0.0000
  27 C27    227.7831 156.1946 180.4406   C.3      778 ligands_prepared   0.0000
  28 H28    227.9266 164.5201 174.3900   H        778 ligands_prepared   0.0000
  29 H29    227.9810 164.0003 176.1161   H        778 ligands_prepared   0.0000
  30 H30    229.0845 163.2372 174.9091   H        778 ligands_prepared   0.0000
  31 H31    228.5122 161.9417 176.8823   H        778 ligands_prepared   0.0000
  32 H32    225.0080 158.8114 175.1963   H        778 ligands_prepared   0.0000
  33 H33    224.7563 159.4304 172.9197   H        778 ligands_prepared   0.0000
  34 H34    223.8618 160.9404 172.5031   H        778 ligands_prepared   0.0000
  35 H35    223.4939 160.0753 174.0415   H        778 ligands_prepared   0.0000
  36 H36    226.0096 157.0083 173.3425   H        778 ligands_prepared   0.0000
  37 H37    227.2087 157.8002 174.4366   H        778 ligands_prepared   0.0000
  38 H38    227.2376 156.0120 174.2201   H        778 ligands_prepared   0.0000
  39 H39    225.2472 152.4833 176.0992   H        778 ligands_prepared   0.0000
  40 H40    224.9169 153.0991 177.7628   H        778 ligands_prepared   0.0000
  41 H41    226.6084 152.7109 177.2600   H        778 ligands_prepared   0.0000
  42 H42    226.7851 154.2566 178.8855   H        778 ligands_prepared   0.0000
  43 H43    226.4105 159.5483 179.3708   H        778 ligands_prepared   0.0000
  44 H44    229.2193 159.0662 178.1038   H        778 ligands_prepared   0.0000
  45 H45    228.7240 160.5990 178.8292   H        778 ligands_prepared   0.0000
  46 H46    227.7600 160.8223 181.0006   H        778 ligands_prepared   0.0000
  47 H47    226.2092 159.9943 181.2584   H        778 ligands_prepared   0.0000
  48 H48    227.5170 159.8642 182.4818   H        778 ligands_prepared   0.0000
  49 H49    229.6891 158.9127 181.8198   H        778 ligands_prepared   0.0000
  50 H50    229.8248 157.8275 180.4092   H        778 ligands_prepared   0.0000
  51 H51    229.7459 159.5974 180.1722   H        778 ligands_prepared   0.0000
  52 H52    227.8566 157.1618 182.4000   H        778 ligands_prepared   0.0000
  53 H53    226.2701 157.2769 181.5862   H        778 ligands_prepared   0.0000
  54 H54    227.5699 155.1830 180.8574   H        778 ligands_prepared   0.0000
  55 H55    228.8969 156.2033 180.3397   H        778 ligands_prepared   0.0000
@<TRIPOS>BOND
   1  1  2    1
   2  1 28    1
   3  1 29    1
   4  1 30    1
   5  2  3    1
   6  3  4   ar
   7  3  8   ar
   8  4  5   ar
   9  4 31    1
  10  5  6   ar
  11  5 22    1
  12  6  7   ar
  13  6 11    1
  14  7  8   ar
  15  7 32    1
  16  8  9    1
  17  9 10    1
  18 10 33    1
  19 10 34    1
  20 10 35    1
  21 11 12   ar
  22 11 20   ar
  23 12 13    1
  24 12 15   ar
  25 13 14    1
  26 14 36    1
  27 14 37    1
  28 14 38    1
  29 15 16    1
  30 15 18   ar
  31 16 17    1
  32 17 39    1
  33 17 40    1
  34 17 41    1
  35 18 19   ar
  36 18 42    1
  37 19 20   ar
  38 19 27    1
  39 20 21    1
  40 21 22    1
  41 21 23    1
  42 21 43    1
  43 22 44    1
  44 22 45    1
  45 23 24    1
  46 23 25    1
  47 23 26    1
  48 24 46    1
  49 24 47    1
  50 24 48    1
  51 25 49    1
  52 25 50    1
  53 25 51    1
  54 26 27    1
  55 26 52    1
  56 26 53    1
  57 27 54    1
  58 27 55    1
