@<TRIPOS>MOLECULE
CHEMBL3329535_LIG
31 33 1 0 0
SMALL
USER_CHARGES

@<TRIPOS>ATOM
   1 O1     220.8773 152.6148 176.0436   O.2      778 ligands_prepared   0.0000
   2 C2     219.7344 153.0050 176.2639   C.2      778 ligands_prepared   0.0000
   3 C3     219.3554 153.7905 177.4942   C.3      778 ligands_prepared   0.0000
   4 C4     218.2725 153.0626 178.3385   C.3      778 ligands_prepared   0.0000
   5 C5     218.8137 153.0796 179.7386   C.2      778 ligands_prepared   0.0000
   6 C6     220.0578 153.5703 179.7956   C.2      778 ligands_prepared   0.0000
   7 C7     220.5716 153.9780 178.4444   C.3      778 ligands_prepared   0.0000
   8 N8     218.7625 152.6820 175.3457   N.am     778 ligands_prepared   0.0000
   9 C9     217.3758 153.1765 175.4632   C.3      778 ligands_prepared   0.0000
  10 C10    216.4398 152.4377 174.4975   C.3      778 ligands_prepared   0.0000
  11 C11    217.0168 152.5115 173.0560   C.3      778 ligands_prepared   0.0000
  12 C12    217.9060 151.3017 173.4628   C.3      778 ligands_prepared   0.0000
  13 C13    219.1452 151.8116 174.2083   C.3      778 ligands_prepared   0.0000
  14 N14    216.8377 150.9394 174.5305   N.4      778 ligands_prepared   1.0000
  15 H15    218.9550 154.7901 177.1909   H        778 ligands_prepared   0.0000
  16 H16    218.1009 152.0254 177.9884   H        778 ligands_prepared   0.0000
  17 H17    217.2960 153.5741 178.2588   H        778 ligands_prepared   0.0000
  18 H18    218.2092 152.7179 180.5533   H        778 ligands_prepared   0.0000
  19 H19    220.6832 153.6923 180.6636   H        778 ligands_prepared   0.0000
  20 H20    220.9335 155.0227 178.4367   H        778 ligands_prepared   0.0000
  21 H21    221.4368 153.3569 178.1424   H        778 ligands_prepared   0.0000
  22 H22    217.0178 153.0518 176.5166   H        778 ligands_prepared   0.0000
  23 H23    217.3398 154.2729 175.2388   H        778 ligands_prepared   0.0000
  24 H24    215.3674 152.6354 174.6603   H        778 ligands_prepared   0.0000
  25 H25    216.2920 152.3059 172.2569   H        778 ligands_prepared   0.0000
  26 H26    217.5406 153.4349 172.7829   H        778 ligands_prepared   0.0000
  27 H27    218.1035 150.5074 172.7257   H        778 ligands_prepared   0.0000
  28 H28    219.7587 150.9578 174.5951   H        778 ligands_prepared   0.0000
  29 H29    219.8058 152.3709 173.5006   H        778 ligands_prepared   0.0000
  30 H30    217.1924 150.5815 175.4284   H        778 ligands_prepared   0.0000
  31 H31    216.1012 150.2999 174.1884   H        778 ligands_prepared   0.0000
@<TRIPOS>BOND
   1  1  2    2
   2  2  3    1
   3  2  8   am
   4  4  3    1
   5  3  7    1
   6  3 15    1
   7  4  5    1
   8  4 16    1
   9  4 17    1
  10  5  6    2
  11  5 18    1
  12  6  7    1
  13  6 19    1
  14  7 20    1
  15  7 21    1
  16  9  8    1
  17  8 13    1
  18  9 10    1
  19  9 22    1
  20  9 23    1
  21 10 11    1
  22 10 14    1
  23 10 24    1
  24 11 12    1
  25 11 25    1
  26 11 26    1
  27 12 13    1
  28 12 14    1
  29 12 27    1
  30 13 28    1
  31 13 29    1
  32 14 30    1
  33 14 31    1
