@<TRIPOS>MOLECULE
CHEMBL3094069_LIG
35 36 1 0 0
SMALL
USER_CHARGES

@<TRIPOS>ATOM
   1 C1     220.0332 154.0050 180.4935   C.3      778 ligands_prepared   0.0000
   2 C2     220.5657 153.6854 179.0996   C.3      778 ligands_prepared   0.0000
   3 C3     219.4047 153.4272 178.1287   C.3      778 ligands_prepared   0.0000
   4 C4     219.9425 152.9721 176.8004   C.2      778 ligands_prepared   0.0000
   5 O5     221.1119 152.6187 176.6738   O.2      778 ligands_prepared   0.0000
   6 N6     219.0956 152.8406 175.7177   N.am     778 ligands_prepared   0.0000
   7 C7     217.6388 153.1001 175.8828   C.3      778 ligands_prepared   0.0000
   8 C8     216.9742 153.6023 174.5792   C.3      778 ligands_prepared   0.0000
   9 C9     215.9404 152.5844 174.0603   C.3      778 ligands_prepared   0.0000
  10 N10    216.5747 151.2488 173.6418   N.4      778 ligands_prepared   1.0000
  11 C11    217.7342 151.4824 172.6990   C.3      778 ligands_prepared   0.0000
  12 C12    218.7534 152.4918 173.2604   C.3      778 ligands_prepared   0.0000
  13 C13    218.0778 153.8371 173.5417   C.3      778 ligands_prepared   0.0000
  14 C14    219.4008 151.9753 174.5705   C.3      778 ligands_prepared   0.0000
  15 H15    219.3691 154.8777 180.4818   H        778 ligands_prepared   0.0000
  16 H16    219.4603 153.1675 180.9093   H        778 ligands_prepared   0.0000
  17 H17    220.8510 154.2250 181.1918   H        778 ligands_prepared   0.0000
  18 H18    221.2313 152.7997 179.1336   H        778 ligands_prepared   0.0000
  19 H19    221.1948 154.5175 178.7229   H        778 ligands_prepared   0.0000
  20 H20    218.7036 152.6872 178.5716   H        778 ligands_prepared   0.0000
  21 H21    218.8053 154.3558 177.9930   H        778 ligands_prepared   0.0000
  22 H22    217.1318 152.1773 176.2469   H        778 ligands_prepared   0.0000
  23 H23    217.5123 153.8688 176.6839   H        778 ligands_prepared   0.0000
  24 H24    216.4534 154.5671 174.8005   H        778 ligands_prepared   0.0000
  25 H25    215.4079 152.9816 173.1618   H        778 ligands_prepared   0.0000
  26 H26    215.1462 152.3913 174.8196   H        778 ligands_prepared   0.0000
  27 H27    216.9037 150.7186 174.4823   H        778 ligands_prepared   0.0000
  28 H28    215.8630 150.6431 173.1733   H        778 ligands_prepared   0.0000
  29 H29    217.3144 151.8495 171.7302   H        778 ligands_prepared   0.0000
  30 H30    218.2139 150.5049 172.4690   H        778 ligands_prepared   0.0000
  31 H31    219.5733 152.6312 172.5095   H        778 ligands_prepared   0.0000
  32 H32    218.8172 154.5721 173.9225   H        778 ligands_prepared   0.0000
  33 H33    217.6864 154.3021 172.6165   H        778 ligands_prepared   0.0000
  34 H34    219.0932 150.9238 174.7630   H        778 ligands_prepared   0.0000
  35 H35    220.5126 151.9462 174.4443   H        778 ligands_prepared   0.0000
@<TRIPOS>BOND
   1  1  2    1
   2  1 15    1
   3  1 16    1
   4  1 17    1
   5  2  3    1
   6  2 18    1
   7  2 19    1
   8  3  4    1
   9  3 20    1
  10  3 21    1
  11  4  5    2
  12  4  6   am
  13  7  6    1
  14  6 14    1
  15  7  8    1
  16  7 22    1
  17  7 23    1
  18  8  9    1
  19  8 13    1
  20  8 24    1
  21  9 10    1
  22  9 25    1
  23  9 26    1
  24 10 11    1
  25 10 27    1
  26 10 28    1
  27 11 12    1
  28 11 29    1
  29 11 30    1
  30 12 13    1
  31 12 14    1
  32 12 31    1
  33 13 32    1
  34 13 33    1
  35 14 34    1
  36 14 35    1
