@<TRIPOS>MOLECULE
CHEMBL225853_nacw_LIG
46 49 1 0 0
SMALL
USER_CHARGES

@<TRIPOS>ATOM
   1 C1     225.0827 160.6100 172.4696   C.3      778 ligands_prepared   0.0000
   2 O2     225.2787 161.3685 173.6581   O.3      778 ligands_prepared   0.0000
   3 C3     225.9484 160.7531 174.6741   C.ar     778 ligands_prepared   0.0000
   4 C4     225.9675 159.3900 174.9298   C.ar     778 ligands_prepared   0.0000
   5 C5     226.6838 158.9028 176.0301   C.ar     778 ligands_prepared   0.0000
   6 C6     227.3124 159.8018 176.9038   C.ar     778 ligands_prepared   0.0000
   7 C7     227.3108 161.1713 176.6469   C.ar     778 ligands_prepared   0.0000
   8 C8     226.6381 161.6427 175.5240   C.ar     778 ligands_prepared   0.0000
   9 O9     226.6735 162.9815 175.3172   O.3      778 ligands_prepared   0.0000
  10 C10    227.9806 159.2652 178.1272   C.3      778 ligands_prepared   0.0000
  11 C11    227.1198 158.1181 178.6851   C.3      778 ligands_prepared   0.0000
  12 C12    226.9383 157.0416 177.6502   C.ar     778 ligands_prepared   0.0000
  13 C13    226.9203 155.6901 177.9871   C.ar     778 ligands_prepared   0.0000
  14 C14    226.8492 154.7422 176.9592   C.ar     778 ligands_prepared   0.0000
  15 Br15   226.8387 152.8925 177.3468   Br       778 ligands_prepared   0.0000
  16 C16    226.7806 155.1383 175.6278   C.ar     778 ligands_prepared   0.0000
  17 O17    226.6995 154.3008 174.5752   O.3      778 ligands_prepared   0.0000
  18 C18    226.7372 156.5125 175.3022   C.ar     778 ligands_prepared   0.0000
  19 O19    226.5767 156.9549 174.0262   O.3      778 ligands_prepared   0.0000
  20 C20    227.7804 157.3370 173.3556   C.3      778 ligands_prepared   0.0000
  21 C21    226.7773 157.4709 176.3160   C.ar     778 ligands_prepared   0.0000
  22 C22    226.9930 155.2514 179.4141   C.3      778 ligands_prepared   0.0000
  23 C23    226.9069 156.3991 180.4175   C.3      778 ligands_prepared   0.0000
  24 N24    227.7310 157.5847 179.9730   N.4      778 ligands_prepared   1.0000
  25 C25    227.7987 158.6661 181.0103   C.3      778 ligands_prepared   0.0000
  26 H26    226.0360 160.2665 172.0548   H        778 ligands_prepared   0.0000
  27 H27    224.6125 161.3453 171.7998   H        778 ligands_prepared   0.0000
  28 H28    224.4048 159.7686 172.6529   H        778 ligands_prepared   0.0000
  29 H29    225.4125 158.7016 174.2871   H        778 ligands_prepared   0.0000
  30 H30    227.8210 161.8700 177.3118   H        778 ligands_prepared   0.0000
  31 H31    226.7940 163.4853 176.1724   H        778 ligands_prepared   0.0000
  32 H32    228.1288 160.0560 178.8964   H        778 ligands_prepared   0.0000
  33 H33    229.0064 158.9165 177.8634   H        778 ligands_prepared   0.0000
  34 H34    226.0979 158.5264 178.9648   H        778 ligands_prepared   0.0000
  35 H35    227.2387 153.4639 174.6812   H        778 ligands_prepared   0.0000
  36 H36    227.4032 158.0069 172.5705   H        778 ligands_prepared   0.0000
  37 H37    228.2572 156.4526 172.9197   H        778 ligands_prepared   0.0000
  38 H38    228.4713 157.8673 174.0159   H        778 ligands_prepared   0.0000
  39 H39    227.9267 154.6628 179.5859   H        778 ligands_prepared   0.0000
  40 H40    226.1637 154.5369 179.6474   H        778 ligands_prepared   0.0000
  41 H41    225.8496 156.7348 180.5574   H        778 ligands_prepared   0.0000
  42 H42    227.2551 156.0689 181.4268   H        778 ligands_prepared   0.0000
  43 H43    228.7159 157.2489 179.7733   H        778 ligands_prepared   0.0000
  44 H44    228.4688 158.3740 181.8400   H        778 ligands_prepared   0.0000
  45 H45    228.2099 159.5984 180.5768   H        778 ligands_prepared   0.0000
  46 H46    226.8055 158.8993 181.4337   H        778 ligands_prepared   0.0000
@<TRIPOS>BOND
   1  1  2    1
   2  1 26    1
   3  1 27    1
   4  1 28    1
   5  2  3    1
   6  3  4   ar
   7  3  8   ar
   8  4  5   ar
   9  4 29    1
  10  5  6   ar
  11  5 21    1
  12  6  7   ar
  13  6 10    1
  14  7  8   ar
  15  7 30    1
  16  8  9    1
  17  9 31    1
  18 10 11    1
  19 10 32    1
  20 10 33    1
  21 11 12    1
  22 11 24    1
  23 11 34    1
  24 12 13   ar
  25 12 21   ar
  26 13 14   ar
  27 13 22    1
  28 14 15    1
  29 14 16   ar
  30 16 17    1
  31 16 18   ar
  32 17 35    1
  33 18 19    1
  34 18 21   ar
  35 19 20    1
  36 20 36    1
  37 20 37    1
  38 20 38    1
  39 22 23    1
  40 22 39    1
  41 22 40    1
  42 23 24    1
  43 23 41    1
  44 23 42    1
  45 24 25    1
  46 24 43    1
  47 25 44    1
  48 25 45    1
  49 25 46    1
