@<TRIPOS>MOLECULE
CHEMBL2409473_LIG
34 36 1 0 0
SMALL
USER_CHARGES

@<TRIPOS>ATOM
   1 O1     221.5570 152.5070 176.6351   O.2      778 ligands_prepared   0.0000
   2 C2     220.3707 152.6508 176.8502   C.2      778 ligands_prepared   0.0000
   3 C3     219.9103 153.0958 178.1554   C.2      778 ligands_prepared   0.0000
   4 C4     218.6928 153.1020 178.7928   C.2      778 ligands_prepared   0.0000
   5 C5     218.9115 153.6904 180.0825   C.2      778 ligands_prepared   0.0000
   6 C6     220.2479 154.0036 180.1426   C.2      778 ligands_prepared   0.0000
   7 O7     220.8851 153.6524 178.9814   O.3      778 ligands_prepared   0.0000
   8 C8     219.3199 152.3936 175.7952   C.3      778 ligands_prepared   0.0000
   9 C9     218.3054 153.5498 175.8519   C.3      778 ligands_prepared   0.0000
  10 C10    217.2902 153.4718 174.6991   C.3      778 ligands_prepared   0.0000
  11 C11    216.4002 152.2169 174.8239   C.3      778 ligands_prepared   0.0000
  12 N12    217.1959 150.9484 174.6779   N.4      778 ligands_prepared   1.0000
  13 C13    218.0344 150.9392 173.4203   C.3      778 ligands_prepared   0.0000
  14 C14    218.9111 152.2049 173.2949   C.3      778 ligands_prepared   0.0000
  15 C15    218.0466 153.4706 173.3658   C.3      778 ligands_prepared   0.0000
  16 C16    219.9684 152.2643 174.4099   C.3      778 ligands_prepared   0.0000
  17 H17    217.7509 152.7403 178.4142   H        778 ligands_prepared   0.0000
  18 H18    218.1628 153.8470 180.8342   H        778 ligands_prepared   0.0000
  19 H19    220.9002 154.4478 180.8679   H        778 ligands_prepared   0.0000
  20 H20    218.7922 151.4327 176.0327   H        778 ligands_prepared   0.0000
  21 H21    218.8349 154.5248 175.8009   H        778 ligands_prepared   0.0000
  22 H22    217.7751 153.5469 176.8264   H        778 ligands_prepared   0.0000
  23 H23    216.6328 154.3777 174.7497   H        778 ligands_prepared   0.0000
  24 H24    215.6036 152.2188 174.0414   H        778 ligands_prepared   0.0000
  25 H25    215.8616 152.1922 175.7982   H        778 ligands_prepared   0.0000
  26 H26    216.5438 150.1326 174.6674   H        778 ligands_prepared   0.0000
  27 H27    217.8101 150.8230 175.5133   H        778 ligands_prepared   0.0000
  28 H28    218.6540 150.0129 173.4068   H        778 ligands_prepared   0.0000
  29 H29    217.3427 150.8522 172.5499   H        778 ligands_prepared   0.0000
  30 H30    219.4373 152.1733 172.3083   H        778 ligands_prepared   0.0000
  31 H31    218.6860 154.3744 173.2890   H        778 ligands_prepared   0.0000
  32 H32    217.3579 153.5464 172.5035   H        778 ligands_prepared   0.0000
  33 H33    220.6462 153.1232 174.2253   H        778 ligands_prepared   0.0000
  34 H34    220.6141 151.3649 174.3771   H        778 ligands_prepared   0.0000
@<TRIPOS>BOND
   1  1  2    2
   2  2  3    1
   3  2  8    1
   4  3  4    2
   5  3  7    1
   6  4  5    1
   7  4 17    1
   8  5  6    2
   9  5 18    1
  10  6  7    1
  11  6 19    1
  12  9  8    1
  13  8 16    1
  14  8 20    1
  15  9 10    1
  16  9 21    1
  17  9 22    1
  18 10 11    1
  19 10 15    1
  20 10 23    1
  21 11 12    1
  22 11 24    1
  23 11 25    1
  24 12 13    1
  25 12 26    1
  26 12 27    1
  27 13 14    1
  28 13 28    1
  29 13 29    1
  30 14 15    1
  31 14 16    1
  32 14 30    1
  33 15 31    1
  34 15 32    1
  35 16 33    1
  36 16 34    1
