@<TRIPOS>MOLECULE
CHEMBL2180258_LIG
54 58 1 0 0
SMALL
USER_CHARGES

@<TRIPOS>ATOM
   1 C1     219.1410 153.8696 178.3695   C.3      778 ligands_prepared   0.0000
   2 C2     219.6421 153.3115 177.1104   C.2      778 ligands_prepared   0.0000
   3 C3     220.9327 153.0052 176.7790   C.2      778 ligands_prepared   0.0000
   4 C4     222.2059 153.1494 177.4904   C.2      778 ligands_prepared   0.0000
   5 O5     222.2790 153.1183 178.7124   O.2      778 ligands_prepared   0.0000
   6 N6     223.3220 153.3341 176.7171   N.am     778 ligands_prepared   0.0000
   7 C7     224.6225 153.5202 177.3546   C.3      778 ligands_prepared   0.0000
   8 C8     225.1153 154.9797 177.1946   C.3      778 ligands_prepared   0.0000
   9 C9     225.3945 155.3092 175.7222   C.3      778 ligands_prepared   0.0000
  10 C10    226.4083 154.3125 175.1451   C.3      778 ligands_prepared   0.0000
  11 N11    226.8793 153.3681 176.2352   N.4      778 ligands_prepared   1.0000
  12 C12    227.4830 154.1822 177.3654   C.3      778 ligands_prepared   0.0000
  13 C13    226.4226 155.0969 177.9926   C.3      778 ligands_prepared   0.0000
  14 C14    225.6803 152.5565 176.7192   C.3      778 ligands_prepared   0.0000
  15 C15    226.1280 151.4908 177.7232   C.3      778 ligands_prepared   0.0000
  16 C16    227.3440 150.7621 177.2639   C.ar     778 ligands_prepared   0.0000
  17 C17    227.2390 149.5357 176.6021   C.ar     778 ligands_prepared   0.0000
  18 C18    228.3959 148.8843 176.1869   C.ar     778 ligands_prepared   0.0000
  19 C19    229.6351 149.4786 176.4524   C.ar     778 ligands_prepared   0.0000
  20 N20    229.7476 150.6539 177.1018   N.ar     778 ligands_prepared   0.0000
  21 C21    228.6250 151.2822 177.5025   C.ar     778 ligands_prepared   0.0000
  22 O22    221.0447 152.4616 175.4906   O.3      778 ligands_prepared   0.0000
  23 C23    219.7616 152.4509 174.9944   C.ar     778 ligands_prepared   0.0000
  24 C24    219.4010 152.0218 173.7209   C.ar     778 ligands_prepared   0.0000
  25 C25    218.0509 152.1021 173.4082   C.ar     778 ligands_prepared   0.0000
  26 C26    217.1436 152.5949 174.3558   C.ar     778 ligands_prepared   0.0000
  27 Cl27   215.4907 152.6810 173.9051   Cl       778 ligands_prepared   0.0000
  28 C28    217.4920 153.0235 175.6257   C.ar     778 ligands_prepared   0.0000
  29 C29    218.8449 152.9544 175.9509   C.ar     778 ligands_prepared   0.0000
  30 H30    219.8124 154.6459 178.7794   H        778 ligands_prepared   0.0000
  31 H31    218.1397 154.3189 178.2720   H        778 ligands_prepared   0.0000
  32 H32    219.0641 153.0921 179.1544   H        778 ligands_prepared   0.0000
  33 H33    223.2849 153.3090 175.6981   H        778 ligands_prepared   0.0000
  34 H34    224.5183 153.2874 178.4545   H        778 ligands_prepared   0.0000
  35 H35    224.3501 155.6831 177.6034   H        778 ligands_prepared   0.0000
  36 H36    224.4619 155.3097 175.1223   H        778 ligands_prepared   0.0000
  37 H37    225.7770 156.3481 175.6344   H        778 ligands_prepared   0.0000
  38 H38    225.9685 153.7138 174.3129   H        778 ligands_prepared   0.0000
  39 H39    227.2972 154.8298 174.7145   H        778 ligands_prepared   0.0000
  40 H40    227.6070 152.7097 175.8571   H        778 ligands_prepared   0.0000
  41 H41    228.3332 154.7754 176.9506   H        778 ligands_prepared   0.0000
  42 H42    227.9314 153.4942 178.1164   H        778 ligands_prepared   0.0000
  43 H43    226.7741 156.1483 178.0053   H        778 ligands_prepared   0.0000
  44 H44    226.2589 154.8395 179.0596   H        778 ligands_prepared   0.0000
  45 H45    225.2400 152.0556 175.8113   H        778 ligands_prepared   0.0000
  46 H46    226.2678 151.9314 178.7362   H        778 ligands_prepared   0.0000
  47 H47    225.2816 150.7678 177.8735   H        778 ligands_prepared   0.0000
  48 H48    226.2569 149.0899 176.4164   H        778 ligands_prepared   0.0000
  49 H49    228.3415 147.9278 175.6651   H        778 ligands_prepared   0.0000
  50 H50    230.5785 149.0069 176.1401   H        778 ligands_prepared   0.0000
  51 H51    228.7702 152.2302 178.0406   H        778 ligands_prepared   0.0000
  52 H52    220.1404 151.6467 173.0141   H        778 ligands_prepared   0.0000
  53 H53    217.7035 151.7822 172.4196   H        778 ligands_prepared   0.0000
  54 H54    216.7614 153.4005 176.3461   H        778 ligands_prepared   0.0000
@<TRIPOS>BOND
   1  1  2    1
   2  1 30    1
   3  1 31    1
   4  1 32    1
   5  2  3    2
   6  2 29    1
   7  3  4    1
   8  3 22    1
   9  4  5    2
  10  4  6   am
  11  6  7    1
  12  6 33    1
  13  7  8    1
  14  7 14    1
  15  7 34    1
  16  8  9    1
  17  8 13    1
  18  8 35    1
  19  9 10    1
  20  9 36    1
  21  9 37    1
  22 10 11    1
  23 10 38    1
  24 10 39    1
  25 11 12    1
  26 11 14    1
  27 11 40    1
  28 12 13    1
  29 12 41    1
  30 12 42    1
  31 13 43    1
  32 13 44    1
  33 14 15    1
  34 14 45    1
  35 15 16    1
  36 15 46    1
  37 15 47    1
  38 16 17   ar
  39 16 21   ar
  40 17 18   ar
  41 17 48    1
  42 18 19   ar
  43 18 49    1
  44 19 20   ar
  45 19 50    1
  46 20 21   ar
  47 21 51    1
  48 22 23    1
  49 23 24   ar
  50 23 29   ar
  51 24 25   ar
  52 24 52    1
  53 25 26   ar
  54 25 53    1
  55 26 27    1
  56 26 28   ar
  57 28 29   ar
  58 28 54    1
