@<TRIPOS>MOLECULE
CHEMBL134713_LIG
43 45 1 0 0
SMALL
USER_CHARGES

@<TRIPOS>ATOM
   1 C1     226.8870 163.4940 174.0678   C.3      778 ligands_prepared   0.0000
   2 O2     226.8314 162.1861 173.5072   O.3      778 ligands_prepared   0.0000
   3 C3     226.6329 161.1454 174.3532   C.ar     778 ligands_prepared   0.0000
   4 C4     226.2953 161.2558 175.7022   C.ar     778 ligands_prepared   0.0000
   5 C5     226.1149 160.0904 176.4454   C.ar     778 ligands_prepared   0.0000
   6 C6     226.2720 158.8353 175.8654   C.ar     778 ligands_prepared   0.0000
   7 C7     226.0858 157.6099 176.6318   C.2      778 ligands_prepared   0.0000
   8 C8     226.8031 157.2952 177.7197   C.2      778 ligands_prepared   0.0000
   9 C9     227.8345 158.1867 178.3357   C.3      778 ligands_prepared   0.0000
  10 C10    227.6138 158.2389 179.8524   C.3      778 ligands_prepared   0.0000
  11 C11    227.6632 156.8211 180.4441   C.3      778 ligands_prepared   0.0000
  12 N12    226.9713 155.8046 179.6696   N.2      778 ligands_prepared   0.0000
  13 C13    226.6029 156.0246 178.4544   C.2      778 ligands_prepared   0.0000
  14 C14    225.9577 154.9149 177.7243   C.ar     778 ligands_prepared   0.0000
  15 C15    224.6479 154.5253 178.0035   C.ar     778 ligands_prepared   0.0000
  16 C16    224.0870 153.4782 177.2749   C.ar     778 ligands_prepared   0.0000
  17 C17    224.8604 152.8494 176.2945   C.ar     778 ligands_prepared   0.0000
  18 N18    226.1329 153.2156 176.0288   N.ar     778 ligands_prepared   0.0000
  19 C19    226.6719 154.2302 176.7278   C.ar     778 ligands_prepared   0.0000
  20 C20    226.6240 158.7601 174.4982   C.ar     778 ligands_prepared   0.0000
  21 O21    226.7513 157.4897 174.0533   O.3      778 ligands_prepared   0.0000
  22 C22    227.1964 157.2988 172.7143   C.3      778 ligands_prepared   0.0000
  23 C23    226.8018 159.9016 173.7261   C.ar     778 ligands_prepared   0.0000
  24 H24    227.0639 164.1218 173.1828   H        778 ligands_prepared   0.0000
  25 H25    227.7199 163.5840 174.7726   H        778 ligands_prepared   0.0000
  26 H26    225.9359 163.7586 174.5417   H        778 ligands_prepared   0.0000
  27 H27    226.1683 162.2237 176.1762   H        778 ligands_prepared   0.0000
  28 H28    225.8451 160.1630 177.5035   H        778 ligands_prepared   0.0000
  29 H29    225.2913 156.9553 176.2561   H        778 ligands_prepared   0.0000
  30 H30    227.7949 159.2117 177.9129   H        778 ligands_prepared   0.0000
  31 H31    228.8543 157.8133 178.1016   H        778 ligands_prepared   0.0000
  32 H32    228.3744 158.8808 180.3337   H        778 ligands_prepared   0.0000
  33 H33    226.6379 158.7127 180.0746   H        778 ligands_prepared   0.0000
  34 H34    227.2266 156.8150 181.4714   H        778 ligands_prepared   0.0000
  35 H35    228.7234 156.4880 180.5621   H        778 ligands_prepared   0.0000
  36 H36    224.0726 155.0345 178.7807   H        778 ligands_prepared   0.0000
  37 H37    223.0645 153.1528 177.4637   H        778 ligands_prepared   0.0000
  38 H38    224.4627 152.0231 175.6912   H        778 ligands_prepared   0.0000
  39 H39    227.7098 154.4968 176.4789   H        778 ligands_prepared   0.0000
  40 H40    228.2116 157.6874 172.5782   H        778 ligands_prepared   0.0000
  41 H41    227.1882 156.2032 172.6202   H        778 ligands_prepared   0.0000
  42 H42    226.4998 157.7512 172.0016   H        778 ligands_prepared   0.0000
  43 H43    227.0615 159.8562 172.6732   H        778 ligands_prepared   0.0000
@<TRIPOS>BOND
   1  1  2    1
   2  1 24    1
   3  1 25    1
   4  1 26    1
   5  2  3    1
   6  3  4   ar
   7  3 23   ar
   8  4  5   ar
   9  4 27    1
  10  5  6   ar
  11  5 28    1
  12  6  7    1
  13  6 20   ar
  14  7  8    2
  15  7 29    1
  16  8  9    1
  17  8 13    1
  18  9 10    1
  19  9 30    1
  20  9 31    1
  21 10 11    1
  22 10 32    1
  23 10 33    1
  24 11 12    1
  25 11 34    1
  26 11 35    1
  27 12 13    2
  28 13 14    1
  29 14 15   ar
  30 14 19   ar
  31 15 16   ar
  32 15 36    1
  33 16 17   ar
  34 16 37    1
  35 17 18   ar
  36 17 38    1
  37 18 19   ar
  38 19 39    1
  39 20 21    1
  40 20 23   ar
  41 21 22    1
  42 22 40    1
  43 22 41    1
  44 22 42    1
  45 23 43    1
