@<TRIPOS>MOLECULE
CHEMBL2180264_LIG
51 55 1 0 0
SMALL
USER_CHARGES

@<TRIPOS>ATOM
   1 O1     223.9758 151.6522 177.4722   O.2      778 ligands_prepared   0.0000
   2 C2     223.8669 152.8410 177.2038   C.2      778 ligands_prepared   0.0000
   3 N3     222.6696 153.4896 177.3553   N.am     778 ligands_prepared   0.0000
   4 C4     221.5197 152.7547 177.8830   C.3      778 ligands_prepared   0.0000
   5 C5     221.3066 153.0693 179.3844   C.3      778 ligands_prepared   0.0000
   6 C6     220.1351 152.2001 179.8659   C.3      778 ligands_prepared   0.0000
   7 C7     218.8557 152.6114 179.1241   C.3      778 ligands_prepared   0.0000
   8 N8     219.1707 153.6513 178.0667   N.4      778 ligands_prepared   1.0000
   9 C9     219.7119 154.8993 178.7422   C.3      778 ligands_prepared   0.0000
  10 C10    220.9426 154.5462 179.5881   C.3      778 ligands_prepared   0.0000
  11 C11    220.2249 153.1371 177.0898   C.3      778 ligands_prepared   0.0000
  12 C12    219.6991 151.9379 176.2932   C.3      778 ligands_prepared   0.0000
  13 C13    218.7141 152.3302 175.2455   C.ar     778 ligands_prepared   0.0000
  14 C14    217.6026 153.1135 175.5638   C.ar     778 ligands_prepared   0.0000
  15 C15    216.7027 153.4612 174.5601   C.ar     778 ligands_prepared   0.0000
  16 C16    216.9372 153.0013 173.2593   C.ar     778 ligands_prepared   0.0000
  17 N17    217.9972 152.2282 172.9474   N.ar     778 ligands_prepared   0.0000
  18 C18    218.8663 151.8961 173.9204   C.ar     778 ligands_prepared   0.0000
  19 C19    225.0039 153.6515 176.7435   C.2      778 ligands_prepared   0.0000
  20 C20    226.3032 153.3938 176.4186   C.2      778 ligands_prepared   0.0000
  21 C21    226.8596 154.6459 175.9575   C.ar     778 ligands_prepared   0.0000
  22 C22    228.1003 155.0655 175.4793   C.ar     778 ligands_prepared   0.0000
  23 C23    228.2429 156.3993 175.1205   C.ar     778 ligands_prepared   0.0000
  24 C24    227.1788 157.3135 175.2311   C.ar     778 ligands_prepared   0.0000
  25 C25    225.9308 156.9266 175.7035   C.ar     778 ligands_prepared   0.0000
  26 C26    225.8067 155.5881 176.0562   C.ar     778 ligands_prepared   0.0000
  27 O27    224.6592 154.9915 176.5362   O.3      778 ligands_prepared   0.0000
  28 H28    222.5313 154.4614 177.0792   H        778 ligands_prepared   0.0000
  29 H29    221.7183 151.6492 177.7658   H        778 ligands_prepared   0.0000
  30 H30    222.2310 152.8193 179.9588   H        778 ligands_prepared   0.0000
  31 H31    219.9973 152.3096 180.9612   H        778 ligands_prepared   0.0000
  32 H32    220.3503 151.1230 179.7153   H        778 ligands_prepared   0.0000
  33 H33    218.0987 153.0404 179.8243   H        778 ligands_prepared   0.0000
  34 H34    218.3628 151.7362 178.6453   H        778 ligands_prepared   0.0000
  35 H35    218.2968 153.8840 177.5283   H        778 ligands_prepared   0.0000
  36 H36    218.9024 155.3477 179.3637   H        778 ligands_prepared   0.0000
  37 H37    219.9552 155.6571 177.9610   H        778 ligands_prepared   0.0000
  38 H38    220.7472 154.7424 180.6632   H        778 ligands_prepared   0.0000
  39 H39    221.7928 155.2124 179.3394   H        778 ligands_prepared   0.0000
  40 H40    220.4493 153.9857 176.3826   H        778 ligands_prepared   0.0000
  41 H41    219.2749 151.1607 176.9698   H        778 ligands_prepared   0.0000
  42 H42    220.5786 151.4170 175.8278   H        778 ligands_prepared   0.0000
  43 H43    217.4291 153.4440 176.5921   H        778 ligands_prepared   0.0000
  44 H44    215.8303 154.0779 174.7819   H        778 ligands_prepared   0.0000
  45 H45    216.2556 153.2471 172.4318   H        778 ligands_prepared   0.0000
  46 H46    219.7086 151.2546 173.6213   H        778 ligands_prepared   0.0000
  47 H47    226.8368 152.4594 176.4719   H        778 ligands_prepared   0.0000
  48 H48    228.9274 154.3605 175.3903   H        778 ligands_prepared   0.0000
  49 H49    229.2048 156.7541 174.7422   H        778 ligands_prepared   0.0000
  50 H50    227.3434 158.3540 174.9341   H        778 ligands_prepared   0.0000
  51 H51    225.1022 157.6239 175.7936   H        778 ligands_prepared   0.0000
@<TRIPOS>BOND
   1  1  2    2
   2  2  3   am
   3  2 19    1
   4  3  4    1
   5  3 28    1
   6  4  5    1
   7  4 11    1
   8  4 29    1
   9  5  6    1
  10  5 10    1
  11  5 30    1
  12  6  7    1
  13  6 31    1
  14  6 32    1
  15  7  8    1
  16  7 33    1
  17  7 34    1
  18  8  9    1
  19  8 11    1
  20  8 35    1
  21  9 10    1
  22  9 36    1
  23  9 37    1
  24 10 38    1
  25 10 39    1
  26 11 12    1
  27 11 40    1
  28 12 13    1
  29 12 41    1
  30 12 42    1
  31 13 14   ar
  32 13 18   ar
  33 14 15   ar
  34 14 43    1
  35 15 16   ar
  36 15 44    1
  37 16 17   ar
  38 16 45    1
  39 17 18   ar
  40 18 46    1
  41 19 20    2
  42 19 27    1
  43 20 21    1
  44 20 47    1
  45 21 22   ar
  46 21 26   ar
  47 22 23   ar
  48 22 48    1
  49 23 24   ar
  50 23 49    1
  51 24 25   ar
  52 24 50    1
  53 25 26   ar
  54 25 51    1
  55 26 27    1
