@<TRIPOS>MOLECULE
CHEMBL2180254_LIG
51 55 1 0 0
SMALL
USER_CHARGES

@<TRIPOS>ATOM
   1 O1     224.7282 151.0830 176.9225   O.2      778 ligands_prepared   0.0000
   2 C2     224.0148 152.0472 177.1496   C.2      778 ligands_prepared   0.0000
   3 N3     222.6992 151.9210 177.5000   N.am     778 ligands_prepared   0.0000
   4 C4     221.8689 153.1005 177.7257   C.3      778 ligands_prepared   0.0000
   5 C5     221.7351 153.4033 179.2423   C.3      778 ligands_prepared   0.0000
   6 C6     220.8215 152.3678 179.9137   C.3      778 ligands_prepared   0.0000
   7 C7     219.3996 152.4891 179.3449   C.3      778 ligands_prepared   0.0000
   8 N8     219.4113 153.3928 178.1249   N.4      778 ligands_prepared   1.0000
   9 C9     219.7767 154.7998 178.5593   C.3      778 ligands_prepared   0.0000
  10 C10    221.0869 154.7887 179.3621   C.3      778 ligands_prepared   0.0000
  11 C11    220.4415 152.8389 177.1475   C.3      778 ligands_prepared   0.0000
  12 C12    220.2468 153.4553 175.7573   C.3      778 ligands_prepared   0.0000
  13 C13    219.0739 152.8206 175.0857   C.ar     778 ligands_prepared   0.0000
  14 C14    217.7691 153.1219 175.4836   C.ar     778 ligands_prepared   0.0000
  15 C15    216.7013 152.4949 174.8490   C.ar     778 ligands_prepared   0.0000
  16 C16    216.9716 151.5905 173.8163   C.ar     778 ligands_prepared   0.0000
  17 N17    218.2255 151.3075 173.4131   N.ar     778 ligands_prepared   0.0000
  18 C18    219.2579 151.9042 174.0396   C.ar     778 ligands_prepared   0.0000
  19 C19    224.4985 153.4374 177.0808   C.2      778 ligands_prepared   0.0000
  20 C20    224.2663 154.4779 176.2310   C.2      778 ligands_prepared   0.0000
  21 C21    225.0793 155.5711 176.7127   C.ar     778 ligands_prepared   0.0000
  22 C22    225.3159 156.8805 176.2989   C.ar     778 ligands_prepared   0.0000
  23 C23    226.2274 157.6014 177.0595   C.ar     778 ligands_prepared   0.0000
  24 F24    226.4874 158.8521 176.6968   F        778 ligands_prepared   0.0000
  25 C25    226.9001 157.1030 178.1905   C.ar     778 ligands_prepared   0.0000
  26 C26    226.6644 155.8013 178.6093   C.ar     778 ligands_prepared   0.0000
  27 C27    225.7551 155.0691 177.8543   C.ar     778 ligands_prepared   0.0000
  28 O28    225.3959 153.7578 178.0980   O.3      778 ligands_prepared   0.0000
  29 H29    222.2634 151.0082 177.6363   H        778 ligands_prepared   0.0000
  30 H30    222.3345 153.9900 177.2121   H        778 ligands_prepared   0.0000
  31 H31    222.7420 153.3977 179.7220   H        778 ligands_prepared   0.0000
  32 H32    220.8101 152.5216 181.0128   H        778 ligands_prepared   0.0000
  33 H33    221.2149 151.3414 179.7796   H        778 ligands_prepared   0.0000
  34 H34    218.6901 152.9107 180.0943   H        778 ligands_prepared   0.0000
  35 H35    218.9840 151.4967 179.0553   H        778 ligands_prepared   0.0000
  36 H36    218.4580 153.4001 177.6726   H        778 ligands_prepared   0.0000
  37 H37    218.9365 155.2111 179.1651   H        778 ligands_prepared   0.0000
  38 H38    219.8542 155.4489 177.6573   H        778 ligands_prepared   0.0000
  39 H39    220.8987 155.0314 180.4277   H        778 ligands_prepared   0.0000
  40 H40    221.7720 155.5847 179.0053   H        778 ligands_prepared   0.0000
  41 H41    220.2563 151.7273 177.0791   H        778 ligands_prepared   0.0000
  42 H42    221.1690 153.3620 175.1401   H        778 ligands_prepared   0.0000
  43 H43    220.0813 154.5577 175.8384   H        778 ligands_prepared   0.0000
  44 H44    217.5885 153.8425 176.2868   H        778 ligands_prepared   0.0000
  45 H45    215.6743 152.7060 175.1475   H        778 ligands_prepared   0.0000
  46 H46    216.1626 151.0699 173.2837   H        778 ligands_prepared   0.0000
  47 H47    220.2628 151.6296 173.6894   H        778 ligands_prepared   0.0000
  48 H48    223.6233 154.5124 175.3685   H        778 ligands_prepared   0.0000
  49 H49    224.8134 157.2967 175.4249   H        778 ligands_prepared   0.0000
  50 H50    227.6075 157.7347 178.7371   H        778 ligands_prepared   0.0000
  51 H51    227.1645 155.3703 179.4768   H        778 ligands_prepared   0.0000
@<TRIPOS>BOND
   1  1  2    2
   2  2  3   am
   3  2 19    1
   4  3  4    1
   5  3 29    1
   6  4  5    1
   7  4 11    1
   8  4 30    1
   9  5  6    1
  10  5 10    1
  11  5 31    1
  12  6  7    1
  13  6 32    1
  14  6 33    1
  15  7  8    1
  16  7 34    1
  17  7 35    1
  18  8  9    1
  19  8 11    1
  20  8 36    1
  21  9 10    1
  22  9 37    1
  23  9 38    1
  24 10 39    1
  25 10 40    1
  26 11 12    1
  27 11 41    1
  28 12 13    1
  29 12 42    1
  30 12 43    1
  31 13 14   ar
  32 13 18   ar
  33 14 15   ar
  34 14 44    1
  35 15 16   ar
  36 15 45    1
  37 16 17   ar
  38 16 46    1
  39 17 18   ar
  40 18 47    1
  41 19 20    2
  42 19 28    1
  43 20 21    1
  44 20 48    1
  45 21 22   ar
  46 21 27   ar
  47 22 23   ar
  48 22 49    1
  49 23 24    1
  50 23 25   ar
  51 25 26   ar
  52 25 50    1
  53 26 27   ar
  54 26 51    1
  55 27 28    1
