@<TRIPOS>MOLECULE
CHEMBL2179855_LIG
47 50 1 0 0
SMALL
USER_CHARGES

@<TRIPOS>ATOM
   1 O1     222.1723 152.8043 176.4180   O.2      778 ligands_prepared   0.0000
   2 C2     222.2760 153.3762 177.4910   C.2      778 ligands_prepared   0.0000
   3 N3     223.3874 154.0821 177.8520   N.am     778 ligands_prepared   0.0000
   4 C4     224.4943 154.2695 176.9147   C.3      778 ligands_prepared   0.0000
   5 C5     224.9156 152.9255 176.2674   C.3      778 ligands_prepared   0.0000
   6 C6     225.8721 153.2702 175.1175   C.3      778 ligands_prepared   0.0000
   7 C7     227.0346 154.1087 175.6687   C.3      778 ligands_prepared   0.0000
   8 N8     226.9839 154.1642 177.1829   N.4      778 ligands_prepared   1.0000
   9 C9     226.9713 152.7325 177.7006   C.3      778 ligands_prepared   0.0000
  10 C10    225.6621 152.0464 177.2803   C.3      778 ligands_prepared   0.0000
  11 C11    225.7169 154.8416 177.6995   C.3      778 ligands_prepared   0.0000
  12 C12    225.8248 156.3699 177.7076   C.3      778 ligands_prepared   0.0000
  13 C13    226.6290 156.9851 178.7995   C.ar     778 ligands_prepared   0.0000
  14 C14    227.0529 156.2281 179.8965   C.ar     778 ligands_prepared   0.0000
  15 C15    227.8007 156.8393 180.8987   C.ar     778 ligands_prepared   0.0000
  16 C16    228.0961 158.2019 180.7833   C.ar     778 ligands_prepared   0.0000
  17 N17    227.6576 158.9492 179.7507   N.ar     778 ligands_prepared   0.0000
  18 C18    226.9301 158.3554 178.7863   C.ar     778 ligands_prepared   0.0000
  19 C19    221.1433 153.4226 178.4773   C.ar     778 ligands_prepared   0.0000
  20 N20    221.4493 153.7074 179.7558   N.ar     778 ligands_prepared   0.0000
  21 C21    220.4497 153.7267 180.6580   C.ar     778 ligands_prepared   0.0000
  22 C22    219.1136 153.4640 180.3146   C.ar     778 ligands_prepared   0.0000
  23 C23    218.7987 153.1676 178.9921   C.ar     778 ligands_prepared   0.0000
  24 C24    219.8387 153.1480 178.0671   C.ar     778 ligands_prepared   0.0000
  25 Cl25   219.5466 152.7878 176.4332   Cl       778 ligands_prepared   0.0000
  26 H26    223.4770 154.5128 178.7717   H        778 ligands_prepared   0.0000
  27 H27    224.1771 154.9809 176.1033   H        778 ligands_prepared   0.0000
  28 H28    224.0161 152.3899 175.8803   H        778 ligands_prepared   0.0000
  29 H29    225.3470 153.8121 174.3058   H        778 ligands_prepared   0.0000
  30 H30    226.2497 152.3416 174.6412   H        778 ligands_prepared   0.0000
  31 H31    227.0223 155.1396 175.2558   H        778 ligands_prepared   0.0000
  32 H32    228.0196 153.6758 175.3668   H        778 ligands_prepared   0.0000
  33 H33    227.8303 154.6734 177.5469   H        778 ligands_prepared   0.0000
  34 H34    227.8627 152.2000 177.2980   H        778 ligands_prepared   0.0000
  35 H35    227.0957 152.7461 178.8074   H        778 ligands_prepared   0.0000
  36 H36    225.0296 151.8253 178.1634   H        778 ligands_prepared   0.0000
  37 H37    225.8776 151.0513 176.8382   H        778 ligands_prepared   0.0000
  38 H38    225.6256 154.5288 178.7882   H        778 ligands_prepared   0.0000
  39 H39    224.7929 156.8074 177.6927   H        778 ligands_prepared   0.0000
  40 H40    226.2380 156.6869 176.7157   H        778 ligands_prepared   0.0000
  41 H41    226.7956 155.1689 179.9713   H        778 ligands_prepared   0.0000
  42 H42    228.1492 156.2683 181.7604   H        778 ligands_prepared   0.0000
  43 H43    228.6947 158.7274 181.5414   H        778 ligands_prepared   0.0000
  44 H44    226.5696 159.0156 177.9803   H        778 ligands_prepared   0.0000
  45 H45    220.7415 153.9628 181.6942   H        778 ligands_prepared   0.0000
  46 H46    218.3332 153.4945 181.0811   H        778 ligands_prepared   0.0000
  47 H47    217.7651 152.9570 178.6937   H        778 ligands_prepared   0.0000
@<TRIPOS>BOND
   1  1  2    2
   2  2  3   am
   3  2 19    1
   4  3  4    1
   5  3 26    1
   6  4  5    1
   7  4 11    1
   8  4 27    1
   9  5  6    1
  10  5 10    1
  11  5 28    1
  12  6  7    1
  13  6 29    1
  14  6 30    1
  15  7  8    1
  16  7 31    1
  17  7 32    1
  18  8  9    1
  19  8 11    1
  20  8 33    1
  21  9 10    1
  22  9 34    1
  23  9 35    1
  24 10 36    1
  25 10 37    1
  26 11 12    1
  27 11 38    1
  28 12 13    1
  29 12 39    1
  30 12 40    1
  31 13 14   ar
  32 13 18   ar
  33 14 15   ar
  34 14 41    1
  35 15 16   ar
  36 15 42    1
  37 16 17   ar
  38 16 43    1
  39 17 18   ar
  40 18 44    1
  41 19 20   ar
  42 19 24   ar
  43 20 21   ar
  44 21 22   ar
  45 21 45    1
  46 22 23   ar
  47 22 46    1
  48 23 24   ar
  49 23 47    1
  50 24 25    1
