@<TRIPOS>MOLECULE
CHEMBL478358_LIG
33 35 1 0 0
SMALL
USER_CHARGES

@<TRIPOS>ATOM
   1 C1     219.5830 153.1714 175.4372   C.2      778 ligands_prepared   0.0000
   2 C2     218.6120 152.5130 174.8018   C.2      778 ligands_prepared   0.0000
   3 C3     217.5828 151.6765 175.5060   C.3      778 ligands_prepared   0.0000
   4 N4     216.6331 151.0758 174.4896   N.4      778 ligands_prepared   1.0000
   5 C5     217.4274 150.2181 173.5221   C.3      778 ligands_prepared   0.0000
   6 C6     218.5018 151.0640 172.8180   C.3      778 ligands_prepared   0.0000
   7 C7     218.4191 152.5213 173.3107   C.3      778 ligands_prepared   0.0000
   8 C8     217.0095 153.0725 173.0212   C.3      778 ligands_prepared   0.0000
   9 C9     215.9588 152.1965 173.7225   C.3      778 ligands_prepared   0.0000
  10 C10    219.7440 153.1425 176.8930   C.ar     778 ligands_prepared   0.0000
  11 C11    220.9940 152.8681 177.4502   C.ar     778 ligands_prepared   0.0000
  12 C12    221.1449 152.8481 178.8344   C.ar     778 ligands_prepared   0.0000
  13 C13    220.0509 153.1020 179.6613   C.ar     778 ligands_prepared   0.0000
  14 C14    218.8041 153.3770 179.1027   C.ar     778 ligands_prepared   0.0000
  15 C15    218.6467 153.3994 177.7191   C.ar     778 ligands_prepared   0.0000
  16 H16    220.3211 153.7747 174.8999   H        778 ligands_prepared   0.0000
  17 H17    218.0583 150.8544 176.0953   H        778 ligands_prepared   0.0000
  18 H18    216.9966 152.2827 176.2405   H        778 ligands_prepared   0.0000
  19 H19    215.9095 150.4881 174.9804   H        778 ligands_prepared   0.0000
  20 H20    217.8821 149.3719 174.0859   H        778 ligands_prepared   0.0000
  21 H21    216.7230 149.7646 172.7877   H        778 ligands_prepared   0.0000
  22 H22    219.5117 150.6503 173.0112   H        778 ligands_prepared   0.0000
  23 H23    218.3721 151.0226 171.7188   H        778 ligands_prepared   0.0000
  24 H24    219.1870 153.1437 172.7941   H        778 ligands_prepared   0.0000
  25 H25    216.9319 154.1241 173.3628   H        778 ligands_prepared   0.0000
  26 H26    216.8272 153.1033 171.9297   H        778 ligands_prepared   0.0000
  27 H27    215.3418 152.7935 174.4338   H        778 ligands_prepared   0.0000
  28 H28    215.2480 151.7496 172.9905   H        778 ligands_prepared   0.0000
  29 H29    221.8458 152.6651 176.8001   H        778 ligands_prepared   0.0000
  30 H30    222.1207 152.6304 179.2705   H        778 ligands_prepared   0.0000
  31 H31    220.1701 153.0838 180.7439   H        778 ligands_prepared   0.0000
  32 H32    217.9464 153.5741 179.7474   H        778 ligands_prepared   0.0000
  33 H33    217.6727 153.6090 177.2777   H        778 ligands_prepared   0.0000
@<TRIPOS>BOND
   1  1  2    2
   2  1 10    1
   3  1 16    1
   4  2  3    1
   5  2  7    1
   6  3  4    1
   7  3 17    1
   8  3 18    1
   9  4  5    1
  10  4  9    1
  11  4 19    1
  12  5  6    1
  13  5 20    1
  14  5 21    1
  15  6  7    1
  16  6 22    1
  17  6 23    1
  18  7  8    1
  19  7 24    1
  20  8  9    1
  21  8 25    1
  22  8 26    1
  23  9 27    1
  24  9 28    1
  25 10 11   ar
  26 10 15   ar
  27 11 12   ar
  28 11 29    1
  29 12 13   ar
  30 12 30    1
  31 13 14   ar
  32 13 31    1
  33 14 15   ar
  34 14 32    1
  35 15 33    1
