@<TRIPOS>MOLECULE
CHEMBL2180260_LIG
55 59 1 0 0
SMALL
USER_CHARGES

@<TRIPOS>ATOM
   1 C1     225.9867 163.8760 171.7331   C.3      778 ligands_prepared   0.0000
   2 O2     225.8525 162.4528 171.7747   O.3      778 ligands_prepared   0.0000
   3 C3     224.6440 161.9768 172.0641   C.2      778 ligands_prepared   0.0000
   4 C4     224.4417 161.1965 173.1818   C.2      778 ligands_prepared   0.0000
   5 C5     225.3392 160.6475 174.1835   C.2      778 ligands_prepared   0.0000
   6 O6     226.1741 161.3310 174.7648   O.2      778 ligands_prepared   0.0000
   7 N7     225.2374 159.3031 174.4399   N.am     778 ligands_prepared   0.0000
   8 C8     226.1789 158.6696 175.3614   C.3      778 ligands_prepared   0.0000
   9 C9     227.6355 158.9454 174.9128   C.3      778 ligands_prepared   0.0000
  10 C10    227.9131 158.2891 173.5532   C.3      778 ligands_prepared   0.0000
  11 C11    227.6213 156.7838 173.6309   C.3      778 ligands_prepared   0.0000
  12 N12    227.2426 156.4035 175.0512   N.4      778 ligands_prepared   1.0000
  13 C13    228.3677 156.8028 175.9860   C.3      778 ligands_prepared   0.0000
  14 C14    228.5648 158.3248 175.9642   C.3      778 ligands_prepared   0.0000
  15 C15    225.9451 157.1213 175.4128   C.3      778 ligands_prepared   0.0000
  16 C16    225.4534 156.6899 176.7998   C.3      778 ligands_prepared   0.0000
  17 C17    225.4345 155.2106 176.9770   C.ar     778 ligands_prepared   0.0000
  18 C18    224.2657 154.4778 176.7579   C.ar     778 ligands_prepared   0.0000
  19 C19    224.2838 153.0959 176.9268   C.ar     778 ligands_prepared   0.0000
  20 C20    225.4828 152.4805 177.3051   C.ar     778 ligands_prepared   0.0000
  21 N21    226.6208 153.1782 177.5007   N.ar     778 ligands_prepared   0.0000
  22 C22    226.5995 154.5137 177.3364   C.ar     778 ligands_prepared   0.0000
  23 O23    223.0895 160.8348 173.3140   O.3      778 ligands_prepared   0.0000
  24 C24    222.4568 161.3895 172.2309   C.ar     778 ligands_prepared   0.0000
  25 C25    221.0972 161.2455 171.9639   C.ar     778 ligands_prepared   0.0000
  26 C26    220.6304 161.8553 170.8090   C.ar     778 ligands_prepared   0.0000
  27 C27    221.5193 162.5700 169.9922   C.ar     778 ligands_prepared   0.0000
  28 Cl28   220.8856 163.2997 168.5751   Cl       778 ligands_prepared   0.0000
  29 C29    222.8701 162.7240 170.2509   C.ar     778 ligands_prepared   0.0000
  30 C30    223.3567 162.1153 171.4069   C.ar     778 ligands_prepared   0.0000
  31 H31    225.4232 164.2878 170.8890   H        778 ligands_prepared   0.0000
  32 H32    225.6930 164.3305 172.6849   H        778 ligands_prepared   0.0000
  33 H33    227.0687 163.9967 171.5722   H        778 ligands_prepared   0.0000
  34 H34    224.5125 158.7244 174.0195   H        778 ligands_prepared   0.0000
  35 H35    226.0145 159.1047 176.3902   H        778 ligands_prepared   0.0000
  36 H36    227.8094 160.0469 174.8494   H        778 ligands_prepared   0.0000
  37 H37    227.3169 158.7598 172.7456   H        778 ligands_prepared   0.0000
  38 H38    228.9678 158.4665 173.2559   H        778 ligands_prepared   0.0000
  39 H39    226.7935 156.4882 172.9459   H        778 ligands_prepared   0.0000
  40 H40    228.5062 156.1803 173.3229   H        778 ligands_prepared   0.0000
  41 H41    227.0853 155.3648 175.1149   H        778 ligands_prepared   0.0000
  42 H42    228.1416 156.4345 177.0115   H        778 ligands_prepared   0.0000
  43 H43    229.2942 156.2691 175.6698   H        778 ligands_prepared   0.0000
  44 H44    229.6218 158.5750 175.7373   H        778 ligands_prepared   0.0000
  45 H45    228.3799 158.7616 176.9662   H        778 ligands_prepared   0.0000
  46 H46    225.1849 156.8278 174.6361   H        778 ligands_prepared   0.0000
  47 H47    226.0477 157.1831 177.6031   H        778 ligands_prepared   0.0000
  48 H48    224.4218 157.1093 176.9476   H        778 ligands_prepared   0.0000
  49 H49    223.3446 154.9779 176.4460   H        778 ligands_prepared   0.0000
  50 H50    223.3841 152.5018 176.7646   H        778 ligands_prepared   0.0000
  51 H51    225.5483 151.3930 177.4533   H        778 ligands_prepared   0.0000
  52 H52    227.5541 155.0373 177.4925   H        778 ligands_prepared   0.0000
  53 H53    220.4439 160.6820 172.6303   H        778 ligands_prepared   0.0000
  54 H54    219.5707 161.7763 170.5413   H        778 ligands_prepared   0.0000
  55 H55    223.5261 163.2905 169.5834   H        778 ligands_prepared   0.0000
@<TRIPOS>BOND
   1  1  2    1
   2  1 31    1
   3  1 32    1
   4  1 33    1
   5  2  3    1
   6  3  4    2
   7  3 30    1
   8  4  5    1
   9  4 23    1
  10  5  6    2
  11  5  7   am
  12  7  8    1
  13  7 34    1
  14  8  9    1
  15  8 15    1
  16  8 35    1
  17  9 10    1
  18  9 14    1
  19  9 36    1
  20 10 11    1
  21 10 37    1
  22 10 38    1
  23 11 12    1
  24 11 39    1
  25 11 40    1
  26 12 13    1
  27 12 15    1
  28 12 41    1
  29 13 14    1
  30 13 42    1
  31 13 43    1
  32 14 44    1
  33 14 45    1
  34 15 16    1
  35 15 46    1
  36 16 17    1
  37 16 47    1
  38 16 48    1
  39 17 18   ar
  40 17 22   ar
  41 18 19   ar
  42 18 49    1
  43 19 20   ar
  44 19 50    1
  45 20 21   ar
  46 20 51    1
  47 21 22   ar
  48 22 52    1
  49 23 24    1
  50 24 25   ar
  51 24 30   ar
  52 25 26   ar
  53 25 53    1
  54 26 27   ar
  55 26 54    1
  56 27 28    1
  57 27 29   ar
  58 29 30   ar
  59 29 55    1
