@<TRIPOS>MOLECULE
CHEMBL2179860_LIG
53 57 1 0 0
SMALL
USER_CHARGES

@<TRIPOS>ATOM
   1 O1     223.2910 152.2934 176.9185   O.2      778 ligands_prepared   0.0000
   2 C2     222.8612 153.3164 177.4361   C.2      778 ligands_prepared   0.0000
   3 N3     223.5341 154.5033 177.3218   N.am     778 ligands_prepared   0.0000
   4 C4     224.7848 154.5974 176.5776   C.3      778 ligands_prepared   0.0000
   5 C5     225.8495 153.6232 177.1413   C.3      778 ligands_prepared   0.0000
   6 C6     226.2705 154.0417 178.5565   C.3      778 ligands_prepared   0.0000
   7 C7     226.8777 155.4515 178.5239   C.3      778 ligands_prepared   0.0000
   8 N8     226.7926 156.0223 177.1190   N.4      778 ligands_prepared   1.0000
   9 C9     227.5975 155.1432 176.1811   C.3      778 ligands_prepared   0.0000
  10 C10    227.0717 153.7010 176.2172   C.3      778 ligands_prepared   0.0000
  11 C11    225.3246 156.0618 176.7088   C.3      778 ligands_prepared   0.0000
  12 C12    225.1406 156.8388 175.4039   C.3      778 ligands_prepared   0.0000
  13 C13    226.0623 158.0075 175.3197   C.ar     778 ligands_prepared   0.0000
  14 C14    226.0240 159.0271 176.2745   C.ar     778 ligands_prepared   0.0000
  15 C15    226.8986 160.1020 176.1587   C.ar     778 ligands_prepared   0.0000
  16 C16    227.7883 160.1326 175.0773   C.ar     778 ligands_prepared   0.0000
  17 N17    227.8272 159.1580 174.1475   N.ar     778 ligands_prepared   0.0000
  18 C18    226.9804 158.1170 174.2653   C.ar     778 ligands_prepared   0.0000
  19 C19    221.5521 153.3794 178.1341   C.ar     778 ligands_prepared   0.0000
  20 C20    221.5424 153.5097 179.5021   C.ar     778 ligands_prepared   0.0000
  21 C21    220.3178 153.5205 180.2112   C.ar     778 ligands_prepared   0.0000
  22 C22    219.1256 153.4018 179.5418   C.ar     778 ligands_prepared   0.0000
  23 C23    219.1040 153.2865 178.1287   C.ar     778 ligands_prepared   0.0000
  24 C24    217.8942 153.1685 177.3882   C.ar     778 ligands_prepared   0.0000
  25 C25    217.9459 153.0606 176.0241   C.ar     778 ligands_prepared   0.0000
  26 C26    219.2166 153.0802 175.3784   C.ar     778 ligands_prepared   0.0000
  27 N27    220.3587 153.1854 176.0382   N.ar     778 ligands_prepared   0.0000
  28 C28    220.3269 153.2804 177.4120   C.ar     778 ligands_prepared   0.0000
  29 H29    223.2241 155.3277 177.8313   H        778 ligands_prepared   0.0000
  30 H30    224.5966 154.3538 175.4910   H        778 ligands_prepared   0.0000
  31 H31    225.4405 152.5846 177.1545   H        778 ligands_prepared   0.0000
  32 H32    225.4172 153.9981 179.2622   H        778 ligands_prepared   0.0000
  33 H33    227.0009 153.3147 178.9687   H        778 ligands_prepared   0.0000
  34 H34    226.3530 156.1409 179.2263   H        778 ligands_prepared   0.0000
  35 H35    227.9457 155.4437 178.8408   H        778 ligands_prepared   0.0000
  36 H36    227.1817 156.9991 177.1002   H        778 ligands_prepared   0.0000
  37 H37    228.6696 155.1903 176.4895   H        778 ligands_prepared   0.0000
  38 H38    227.5562 155.5691 175.1548   H        778 ligands_prepared   0.0000
  39 H39    227.8637 153.0092 176.5713   H        778 ligands_prepared   0.0000
  40 H40    226.8205 153.3495 175.1966   H        778 ligands_prepared   0.0000
  41 H41    224.7706 156.5902 177.5390   H        778 ligands_prepared   0.0000
  42 H42    225.2396 156.1720 174.5175   H        778 ligands_prepared   0.0000
  43 H43    224.0755 157.1883 175.3444   H        778 ligands_prepared   0.0000
  44 H44    225.3108 158.9840 177.1039   H        778 ligands_prepared   0.0000
  45 H45    226.8937 160.9087 176.8924   H        778 ligands_prepared   0.0000
  46 H46    228.4969 160.9622 174.9396   H        778 ligands_prepared   0.0000
  47 H47    227.0450 157.3519 173.4778   H        778 ligands_prepared   0.0000
  48 H48    222.4827 153.5957 180.0608   H        778 ligands_prepared   0.0000
  49 H49    220.3417 153.6132 181.3004   H        778 ligands_prepared   0.0000
  50 H50    218.1746 153.3935 180.0839   H        778 ligands_prepared   0.0000
  51 H51    216.9410 153.1653 177.9268   H        778 ligands_prepared   0.0000
  52 H52    217.0448 152.9630 175.4196   H        778 ligands_prepared   0.0000
  53 H53    219.2855 153.0074 174.2809   H        778 ligands_prepared   0.0000
@<TRIPOS>BOND
   1  1  2    2
   2  2  3   am
   3  2 19    1
   4  3  4    1
   5  3 29    1
   6  4  5    1
   7  4 11    1
   8  4 30    1
   9  5  6    1
  10  5 10    1
  11  5 31    1
  12  6  7    1
  13  6 32    1
  14  6 33    1
  15  7  8    1
  16  7 34    1
  17  7 35    1
  18  8  9    1
  19  8 11    1
  20  8 36    1
  21  9 10    1
  22  9 37    1
  23  9 38    1
  24 10 39    1
  25 10 40    1
  26 11 12    1
  27 11 41    1
  28 12 13    1
  29 12 42    1
  30 12 43    1
  31 13 14   ar
  32 13 18   ar
  33 14 15   ar
  34 14 44    1
  35 15 16   ar
  36 15 45    1
  37 16 17   ar
  38 16 46    1
  39 17 18   ar
  40 18 47    1
  41 19 20   ar
  42 19 28   ar
  43 20 21   ar
  44 20 48    1
  45 21 22   ar
  46 21 49    1
  47 22 23   ar
  48 22 50    1
  49 23 24   ar
  50 23 28   ar
  51 24 25   ar
  52 24 51    1
  53 25 26   ar
  54 25 52    1
  55 26 27   ar
  56 26 53    1
  57 27 28   ar
