@<TRIPOS>MOLECULE
CHEMBL3094067_LIG
29 30 1 0 0
SMALL
USER_CHARGES

@<TRIPOS>ATOM
   1 C1     218.7470 153.2077 177.7113   C.3      778 ligands_prepared   0.0000
   2 C2     219.3830 152.7432 176.4434   C.2      778 ligands_prepared   0.0000
   3 O3     220.4886 152.1992 176.4392   O.2      778 ligands_prepared   0.0000
   4 N4     218.7256 152.9136 175.2524   N.am     778 ligands_prepared   0.0000
   5 C5     217.4499 153.6393 175.1389   C.3      778 ligands_prepared   0.0000
   6 C6     216.5649 153.0534 174.0136   C.3      778 ligands_prepared   0.0000
   7 C7     216.0964 151.6264 174.3593   C.3      778 ligands_prepared   0.0000
   8 N8     217.2334 150.6404 174.4124   N.4      778 ligands_prepared   1.0000
   9 C9     218.1516 150.7146 173.2106   C.3      778 ligands_prepared   0.0000
  10 C10    218.5777 152.1568 172.8767   C.3      778 ligands_prepared   0.0000
  11 C11    217.3571 153.0661 172.7030   C.3      778 ligands_prepared   0.0000
  12 C12    219.4731 152.7366 173.9900   C.3      778 ligands_prepared   0.0000
  13 H13    217.8347 152.6407 177.9488   H        778 ligands_prepared   0.0000
  14 H14    219.4341 153.0923 178.5663   H        778 ligands_prepared   0.0000
  15 H15    218.4693 154.2749 177.6666   H        778 ligands_prepared   0.0000
  16 H16    216.8908 153.5992 176.1021   H        778 ligands_prepared   0.0000
  17 H17    217.6555 154.7131 174.9297   H        778 ligands_prepared   0.0000
  18 H18    215.6666 153.7110 173.9139   H        778 ligands_prepared   0.0000
  19 H19    215.3667 151.2612 173.5963   H        778 ligands_prepared   0.0000
  20 H20    215.5584 151.6059 175.3340   H        778 ligands_prepared   0.0000
  21 H21    217.7848 150.7988 175.2850   H        778 ligands_prepared   0.0000
  22 H22    216.8396 149.6736 174.4826   H        778 ligands_prepared   0.0000
  23 H23    217.6099 150.2594 172.3476   H        778 ligands_prepared   0.0000
  24 H24    219.0391 150.0680 173.3984   H        778 ligands_prepared   0.0000
  25 H25    219.1743 152.1475 171.9311   H        778 ligands_prepared   0.0000
  26 H26    216.7319 152.7559 171.8425   H        778 ligands_prepared   0.0000
  27 H27    217.6729 154.0981 172.4516   H        778 ligands_prepared   0.0000
  28 H28    220.3501 152.0680 174.1648   H        778 ligands_prepared   0.0000
  29 H29    219.8766 153.7242 173.6745   H        778 ligands_prepared   0.0000
@<TRIPOS>BOND
   1  1  2    1
   2  1 13    1
   3  1 14    1
   4  1 15    1
   5  2  3    2
   6  2  4   am
   7  5  4    1
   8  4 12    1
   9  5  6    1
  10  5 16    1
  11  5 17    1
  12  6  7    1
  13  6 11    1
  14  6 18    1
  15  7  8    1
  16  7 19    1
  17  7 20    1
  18  8  9    1
  19  8 21    1
  20  8 22    1
  21  9 10    1
  22  9 23    1
  23  9 24    1
  24 10 11    1
  25 10 12    1
  26 10 25    1
  27 11 26    1
  28 11 27    1
  29 12 28    1
  30 12 29    1
