@<TRIPOS>MOLECULE
CHEMBL446533_nacw_LIG
44 47 1 0 0
SMALL
USER_CHARGES

@<TRIPOS>ATOM
   1 C1     228.0544 155.6824 180.9736   C.3      778 ligands_prepared   0.0000
   2 O2     228.1815 157.0267 180.5228   O.3      778 ligands_prepared   0.0000
   3 C3     227.5870 157.3357 179.3385   C.ar     778 ligands_prepared   0.0000
   4 C4     227.3910 156.4687 178.2758   C.ar     778 ligands_prepared   0.0000
   5 C5     226.7831 156.9371 177.1067   C.ar     778 ligands_prepared   0.0000
   6 C6     226.4023 158.2774 177.0024   C.ar     778 ligands_prepared   0.0000
   7 C7     226.5859 159.1571 178.0704   C.ar     778 ligands_prepared   0.0000
   8 C8     227.1717 158.6836 179.2377   C.ar     778 ligands_prepared   0.0000
   9 O9     227.3297 159.5773 180.2434   O.3      778 ligands_prepared   0.0000
  10 C10    225.8537 158.7445 175.6971   C.3      778 ligands_prepared   0.0000
  11 C11    226.7485 158.2003 174.5841   C.3      778 ligands_prepared   0.0000
  12 N12    226.7902 156.6886 174.5908   N.4      778 ligands_prepared   1.0000
  13 C13    228.1733 156.1629 174.1882   C.3      778 ligands_prepared   0.0000
  14 C14    228.3273 154.8918 174.9636   C.2      778 ligands_prepared   0.0000
  15 C15    227.3884 154.7809 175.9147   C.2      778 ligands_prepared   0.0000
  16 C16    227.0634 153.6508 176.7559   C.2      778 ligands_prepared   0.0000
  17 C17    225.8544 153.5422 177.3224   C.2      778 ligands_prepared   0.0000
  18 C18    224.8015 154.6083 177.2009   C.3      778 ligands_prepared   0.0000
  19 O19    223.5494 154.0010 176.9136   O.3      778 ligands_prepared   0.0000
  20 C20    223.1817 152.9698 177.8127   C.3      778 ligands_prepared   0.0000
  21 C21    225.0199 155.5503 175.9984   C.3      778 ligands_prepared   0.0000
  22 C22    226.4837 156.0063 175.9657   C.3      778 ligands_prepared   0.0000
  23 H23    228.5578 155.7186 181.9515   H        778 ligands_prepared   0.0000
  24 H24    228.5745 154.9942 180.2988   H        778 ligands_prepared   0.0000
  25 H25    227.0023 155.4012 181.0908   H        778 ligands_prepared   0.0000
  26 H26    227.7109 155.4272 178.3466   H        778 ligands_prepared   0.0000
  27 H27    226.2823 160.2031 177.9933   H        778 ligands_prepared   0.0000
  28 H28    228.0368 159.2890 180.8909   H        778 ligands_prepared   0.0000
  29 H29    224.7937 158.4296 175.5677   H        778 ligands_prepared   0.0000
  30 H30    225.8132 159.8563 175.6277   H        778 ligands_prepared   0.0000
  31 H31    227.7817 158.6107 174.6930   H        778 ligands_prepared   0.0000
  32 H32    226.3861 158.5326 173.5801   H        778 ligands_prepared   0.0000
  33 H33    226.0798 156.3297 173.8985   H        778 ligands_prepared   0.0000
  34 H34    228.9711 156.9025 174.4392   H        778 ligands_prepared   0.0000
  35 H35    228.2128 156.0136 173.0834   H        778 ligands_prepared   0.0000
  36 H36    229.1099 154.1900 174.7099   H        778 ligands_prepared   0.0000
  37 H37    227.8358 152.8854 176.8728   H        778 ligands_prepared   0.0000
  38 H38    225.5650 152.6757 177.9192   H        778 ligands_prepared   0.0000
  39 H39    224.7412 155.1968 178.1514   H        778 ligands_prepared   0.0000
  40 H40    223.9189 152.1615 177.8148   H        778 ligands_prepared   0.0000
  41 H41    222.2256 152.6143 177.4059   H        778 ligands_prepared   0.0000
  42 H42    223.0419 153.3692 178.8236   H        778 ligands_prepared   0.0000
  43 H43    224.7417 155.0135 175.0646   H        778 ligands_prepared   0.0000
  44 H44    224.3202 156.4081 176.0638   H        778 ligands_prepared   0.0000
@<TRIPOS>BOND
   1  1  2    1
   2  1 23    1
   3  1 24    1
   4  1 25    1
   5  2  3    1
   6  3  4   ar
   7  3  8   ar
   8  4  5   ar
   9  4 26    1
  10  5  6   ar
  11  5 22    1
  12  6  7   ar
  13  6 10    1
  14  7  8   ar
  15  7 27    1
  16  8  9    1
  17  9 28    1
  18 10 11    1
  19 10 29    1
  20 10 30    1
  21 11 12    1
  22 11 31    1
  23 11 32    1
  24 12 13    1
  25 12 22    1
  26 12 33    1
  27 13 14    1
  28 13 34    1
  29 13 35    1
  30 14 15    2
  31 14 36    1
  32 15 16    1
  33 15 22    1
  34 16 17    2
  35 16 37    1
  36 17 18    1
  37 17 38    1
  38 18 19    1
  39 18 21    1
  40 18 39    1
  41 19 20    1
  42 20 40    1
  43 20 41    1
  44 20 42    1
  45 21 43    1
  46 21 44    1
  47 22 21    1
