@<TRIPOS>MOLECULE
CHEMBL2179849_LIG
48 51 1 0 0
SMALL
USER_CHARGES

@<TRIPOS>ATOM
   1 O1     221.7175 151.5810 177.6217   O.2      778 ligands_prepared   0.0000
   2 C2     221.9956 152.4617 176.8214   C.2      778 ligands_prepared   0.0000
   3 N3     221.0843 152.8723 175.8827   N.am     778 ligands_prepared   0.0000
   4 C4     219.7474 152.2767 175.8519   C.3      778 ligands_prepared   0.0000
   5 C5     219.4013 151.7570 174.4358   C.3      778 ligands_prepared   0.0000
   6 C6     219.3682 152.9096 173.4225   C.3      778 ligands_prepared   0.0000
   7 C7     218.4010 154.0001 173.9036   C.3      778 ligands_prepared   0.0000
   8 N8     217.6689 153.5275 175.1471   N.4      778 ligands_prepared   1.0000
   9 C9     216.9685 152.2189 174.8334   C.3      778 ligands_prepared   0.0000
  10 C10    218.0022 151.1279 174.5193   C.3      778 ligands_prepared   0.0000
  11 C11    218.6890 153.3532 176.2685   C.3      778 ligands_prepared   0.0000
  12 C12    217.9956 152.9738 177.5803   C.3      778 ligands_prepared   0.0000
  13 C13    218.7857 153.4044 178.7678   C.ar     778 ligands_prepared   0.0000
  14 C14    220.1074 153.8374 178.6433   C.ar     778 ligands_prepared   0.0000
  15 C15    220.8051 154.2301 179.7810   C.ar     778 ligands_prepared   0.0000
  16 C16    220.1547 154.1829 181.0204   C.ar     778 ligands_prepared   0.0000
  17 N17    218.8741 153.7780 181.1482   N.ar     778 ligands_prepared   0.0000
  18 C18    218.2026 153.3987 180.0467   C.ar     778 ligands_prepared   0.0000
  19 C19    223.3062 153.1644 176.8278   C.ar     778 ligands_prepared   0.0000
  20 C20    223.3512 154.5091 176.4620   C.ar     778 ligands_prepared   0.0000
  21 C21    224.5726 155.1826 176.4351   C.ar     778 ligands_prepared   0.0000
  22 C22    225.7292 154.4872 176.7659   C.ar     778 ligands_prepared   0.0000
  23 Cl23   227.2194 155.3146 176.7266   Cl       778 ligands_prepared   0.0000
  24 C24    225.6796 153.1444 177.1182   C.ar     778 ligands_prepared   0.0000
  25 Cl25   227.1051 152.2950 177.5046   Cl       778 ligands_prepared   0.0000
  26 C26    224.4689 152.4655 177.1575   C.ar     778 ligands_prepared   0.0000
  27 H27    221.3080 153.5756 175.1832   H        778 ligands_prepared   0.0000
  28 H28    219.7193 151.4169 176.5815   H        778 ligands_prepared   0.0000
  29 H29    220.1488 150.9905 174.1189   H        778 ligands_prepared   0.0000
  30 H30    219.0590 152.5263 172.4267   H        778 ligands_prepared   0.0000
  31 H31    220.3782 153.3303 173.2507   H        778 ligands_prepared   0.0000
  32 H32    217.6472 154.2523 173.1217   H        778 ligands_prepared   0.0000
  33 H33    218.9330 154.9511 174.1364   H        778 ligands_prepared   0.0000
  34 H34    216.9594 154.2466 175.4419   H        778 ligands_prepared   0.0000
  35 H35    216.2823 152.3872 173.9686   H        778 ligands_prepared   0.0000
  36 H36    216.3156 151.9341 175.6877   H        778 ligands_prepared   0.0000
  37 H37    217.9739 150.3264 175.2846   H        778 ligands_prepared   0.0000
  38 H38    217.7489 150.6196 173.5660   H        778 ligands_prepared   0.0000
  39 H39    219.1975 154.3502 176.3950   H        778 ligands_prepared   0.0000
  40 H40    217.8529 151.8598 177.5946   H        778 ligands_prepared   0.0000
  41 H41    216.9530 153.3608 177.6160   H        778 ligands_prepared   0.0000
  42 H42    220.5906 153.8752 177.6635   H        778 ligands_prepared   0.0000
  43 H43    221.8402 154.5689 179.7130   H        778 ligands_prepared   0.0000
  44 H44    220.6625 154.4812 181.9481   H        778 ligands_prepared   0.0000
  45 H45    217.1605 153.0824 180.1975   H        778 ligands_prepared   0.0000
  46 H46    222.4277 155.0366 176.1955   H        778 ligands_prepared   0.0000
  47 H47    224.6075 156.2420 176.1532   H        778 ligands_prepared   0.0000
  48 H48    224.4254 151.4069 177.4336   H        778 ligands_prepared   0.0000
@<TRIPOS>BOND
   1  1  2    2
   2  2  3   am
   3  2 19    1
   4  3  4    1
   5  3 27    1
   6  4  5    1
   7  4 11    1
   8  4 28    1
   9  5  6    1
  10  5 10    1
  11  5 29    1
  12  6  7    1
  13  6 30    1
  14  6 31    1
  15  7  8    1
  16  7 32    1
  17  7 33    1
  18  8  9    1
  19  8 11    1
  20  8 34    1
  21  9 10    1
  22  9 35    1
  23  9 36    1
  24 10 37    1
  25 10 38    1
  26 11 12    1
  27 11 39    1
  28 12 13    1
  29 12 40    1
  30 12 41    1
  31 13 14   ar
  32 13 18   ar
  33 14 15   ar
  34 14 42    1
  35 15 16   ar
  36 15 43    1
  37 16 17   ar
  38 16 44    1
  39 17 18   ar
  40 18 45    1
  41 19 20   ar
  42 19 26   ar
  43 20 21   ar
  44 20 46    1
  45 21 22   ar
  46 21 47    1
  47 22 23    1
  48 22 24   ar
  49 24 25    1
  50 24 26   ar
  51 26 48    1
