@<TRIPOS>MOLECULE
CHEMBL2179862_LIG
53 57 1 0 0
SMALL
USER_CHARGES

@<TRIPOS>ATOM
   1 O1     224.8412 151.0931 176.9484   O.2      778 ligands_prepared   0.0000
   2 C2     224.1317 152.0708 177.1419   C.2      778 ligands_prepared   0.0000
   3 N3     222.8170 151.9488 177.4955   N.am     778 ligands_prepared   0.0000
   4 C4     221.9705 153.1267 177.6750   C.3      778 ligands_prepared   0.0000
   5 C5     221.8945 153.5291 179.1703   C.3      778 ligands_prepared   0.0000
   6 C6     221.1515 152.4567 179.9792   C.3      778 ligands_prepared   0.0000
   7 C7     219.7321 152.2620 179.4246   C.3      778 ligands_prepared   0.0000
   8 N8     219.5137 153.1893 178.2385   N.4      778 ligands_prepared   1.0000
   9 C9     219.6824 154.6124 178.7308   C.3      778 ligands_prepared   0.0000
  10 C10    221.1145 154.8493 179.2288   C.3      778 ligands_prepared   0.0000
  11 C11    220.5288 152.8030 177.1663   C.3      778 ligands_prepared   0.0000
  12 C12    220.1767 153.3869 175.7936   C.3      778 ligands_prepared   0.0000
  13 C13    219.0022 152.8133 175.0788   C.ar     778 ligands_prepared   0.0000
  14 C14    217.6948 153.1013 175.4871   C.ar     778 ligands_prepared   0.0000
  15 C15    216.6231 152.5429 174.7981   C.ar     778 ligands_prepared   0.0000
  16 C16    216.8880 151.6762 173.7306   C.ar     778 ligands_prepared   0.0000
  17 N17    218.1433 151.3594 173.3550   N.ar     778 ligands_prepared   0.0000
  18 C18    219.1759 151.9115 174.0172   C.ar     778 ligands_prepared   0.0000
  19 C19    224.6657 153.4700 177.0791   C.ar     778 ligands_prepared   0.0000
  20 C20    225.5673 153.9027 178.0208   C.ar     778 ligands_prepared   0.0000
  21 C21    225.9982 155.2596 177.9749   C.ar     778 ligands_prepared   0.0000
  22 C22    226.9051 155.7979 178.9247   C.ar     778 ligands_prepared   0.0000
  23 C23    227.2580 157.1239 178.8645   C.ar     778 ligands_prepared   0.0000
  24 C24    226.7262 157.9665 177.8569   C.ar     778 ligands_prepared   0.0000
  25 C25    225.8642 157.4625 176.9147   C.ar     778 ligands_prepared   0.0000
  26 C26    225.4867 156.0970 176.9590   C.ar     778 ligands_prepared   0.0000
  27 C27    224.5829 155.5213 176.0079   C.ar     778 ligands_prepared   0.0000
  28 N28    224.1858 154.2627 176.0623   N.ar     778 ligands_prepared   0.0000
  29 H29    222.3851 151.0370 177.6440   H        778 ligands_prepared   0.0000
  30 H30    222.4076 153.9843 177.0928   H        778 ligands_prepared   0.0000
  31 H31    222.9240 153.6703 179.5777   H        778 ligands_prepared   0.0000
  32 H32    221.1137 152.7453 181.0502   H        778 ligands_prepared   0.0000
  33 H33    221.7038 151.4952 179.9700   H        778 ligands_prepared   0.0000
  34 H34    218.9558 152.4757 180.1941   H        778 ligands_prepared   0.0000
  35 H35    219.5568 151.2107 179.1005   H        778 ligands_prepared   0.0000
  36 H36    218.5368 153.0628 177.8619   H        778 ligands_prepared   0.0000
  37 H37    219.4029 155.3243 177.9267   H        778 ligands_prepared   0.0000
  38 H38    218.9411 154.7888 179.5480   H        778 ligands_prepared   0.0000
  39 H39    221.1026 155.2532 180.2622   H        778 ligands_prepared   0.0000
  40 H40    221.6150 155.6345 178.6254   H        778 ligands_prepared   0.0000
  41 H41    220.4358 151.6731 177.0548   H        778 ligands_prepared   0.0000
  42 H42    220.0233 154.4904 175.9315   H        778 ligands_prepared   0.0000
  43 H43    221.0855 153.3446 175.1397   H        778 ligands_prepared   0.0000
  44 H44    217.5129 153.7573 176.3443   H        778 ligands_prepared   0.0000
  45 H45    215.5961 152.7700 175.0837   H        778 ligands_prepared   0.0000
  46 H46    216.0764 151.2067 173.1564   H        778 ligands_prepared   0.0000
  47 H47    220.1811 151.6108 173.6783   H        778 ligands_prepared   0.0000
  48 H48    225.9391 153.2418 178.8086   H        778 ligands_prepared   0.0000
  49 H49    227.3078 155.1436 179.7005   H        778 ligands_prepared   0.0000
  50 H50    227.9479 157.5507 179.5984   H        778 ligands_prepared   0.0000
  51 H51    227.0149 159.0219 177.8441   H        778 ligands_prepared   0.0000
  52 H52    225.4531 158.1019 176.1287   H        778 ligands_prepared   0.0000
  53 H53    224.1804 156.1398 175.1866   H        778 ligands_prepared   0.0000
@<TRIPOS>BOND
   1  1  2    2
   2  2  3   am
   3  2 19    1
   4  3  4    1
   5  3 29    1
   6  4  5    1
   7  4 11    1
   8  4 30    1
   9  5  6    1
  10  5 10    1
  11  5 31    1
  12  6  7    1
  13  6 32    1
  14  6 33    1
  15  7  8    1
  16  7 34    1
  17  7 35    1
  18  8  9    1
  19  8 11    1
  20  8 36    1
  21  9 10    1
  22  9 37    1
  23  9 38    1
  24 10 39    1
  25 10 40    1
  26 11 12    1
  27 11 41    1
  28 12 13    1
  29 12 42    1
  30 12 43    1
  31 13 14   ar
  32 13 18   ar
  33 14 15   ar
  34 14 44    1
  35 15 16   ar
  36 15 45    1
  37 16 17   ar
  38 16 46    1
  39 17 18   ar
  40 18 47    1
  41 19 20   ar
  42 19 28   ar
  43 20 21   ar
  44 20 48    1
  45 21 22   ar
  46 21 26   ar
  47 22 23   ar
  48 22 49    1
  49 23 24   ar
  50 23 50    1
  51 24 25   ar
  52 24 51    1
  53 25 26   ar
  54 25 52    1
  55 26 27   ar
  56 27 28   ar
  57 27 53    1
