@<TRIPOS>MOLECULE
CHEMBL388342_ncw_LIG
46 49 1 0 0
SMALL
USER_CHARGES

@<TRIPOS>ATOM
   1 C1     228.7638 162.6328 177.2279   C.3      778 ligands_prepared   0.0000
   2 O2     227.7862 162.3548 176.2290   O.3      778 ligands_prepared   0.0000
   3 C3     227.1825 161.1335 176.2968   C.ar     778 ligands_prepared   0.0000
   4 C4     227.4824 160.1361 177.2118   C.ar     778 ligands_prepared   0.0000
   5 C5     226.8114 158.9088 177.1583   C.ar     778 ligands_prepared   0.0000
   6 C6     225.8903 158.6782 176.1220   C.ar     778 ligands_prepared   0.0000
   7 C7     225.5780 159.6757 175.2001   C.ar     778 ligands_prepared   0.0000
   8 C8     226.2138 160.9087 175.2976   C.ar     778 ligands_prepared   0.0000
   9 O9     225.8726 161.8444 174.3814   O.3      778 ligands_prepared   0.0000
  10 C10    225.2551 157.3319 175.9952   C.3      778 ligands_prepared   0.0000
  11 C11    226.3067 156.2735 176.3679   C.3      778 ligands_prepared   0.0000
  12 C12    226.7539 156.5130 177.7863   C.ar     778 ligands_prepared   0.0000
  13 C13    226.8981 155.4738 178.7031   C.ar     778 ligands_prepared   0.0000
  14 C14    227.2688 155.7392 180.0231   C.ar     778 ligands_prepared   0.0000
  15 C15    227.5005 157.0561 180.3972   C.ar     778 ligands_prepared   0.0000
  16 O16    227.8033 157.2652 181.6988   O.3      778 ligands_prepared   0.0000
  17 C17    227.4215 158.1067 179.4611   C.ar     778 ligands_prepared   0.0000
  18 O18    227.6017 159.3904 179.9075   O.3      778 ligands_prepared   0.0000
  19 C19    228.9481 159.6683 180.3089   C.3      778 ligands_prepared   0.0000
  20 C20    227.0269 157.8505 178.1480   C.ar     778 ligands_prepared   0.0000
  21 C21    226.6155 154.0587 178.3228   C.3      778 ligands_prepared   0.0000
  22 C22    226.6305 153.8595 176.8124   C.3      778 ligands_prepared   0.0000
  23 N23    225.7135 154.8822 176.1776   N.4      778 ligands_prepared   1.0000
  24 C24    224.3560 154.8300 176.8130   C.3      778 ligands_prepared   0.0000
  25 H25    229.6758 162.0562 177.0424   H        778 ligands_prepared   0.0000
  26 H26    228.3754 162.4460 178.2345   H        778 ligands_prepared   0.0000
  27 H27    228.9489 163.7077 177.0784   H        778 ligands_prepared   0.0000
  28 H28    228.2502 160.3080 177.9654   H        778 ligands_prepared   0.0000
  29 H29    224.8514 159.4990 174.4056   H        778 ligands_prepared   0.0000
  30 H30    226.3510 161.7051 173.5123   H        778 ligands_prepared   0.0000
  31 H31    224.8602 157.1673 174.9676   H        778 ligands_prepared   0.0000
  32 H32    224.3601 157.2640 176.6589   H        778 ligands_prepared   0.0000
  33 H33    227.2025 156.3593 175.6833   H        778 ligands_prepared   0.0000
  34 H34    227.3604 154.9350 180.7542   H        778 ligands_prepared   0.0000
  35 H35    228.3815 156.5320 182.0695   H        778 ligands_prepared   0.0000
  36 H36    228.9198 160.7506 180.5015   H        778 ligands_prepared   0.0000
  37 H37    229.6634 159.4319 179.5130   H        778 ligands_prepared   0.0000
  38 H38    229.2090 159.1209 181.2181   H        778 ligands_prepared   0.0000
  39 H39    225.6357 153.7417 178.7579   H        778 ligands_prepared   0.0000
  40 H40    227.3501 153.3608 178.7925   H        778 ligands_prepared   0.0000
  41 H41    227.6584 153.9652 176.3937   H        778 ligands_prepared   0.0000
  42 H42    226.2878 152.8322 176.5422   H        778 ligands_prepared   0.0000
  43 H43    225.6267 154.6800 175.1441   H        778 ligands_prepared   0.0000
  44 H44    224.4034 155.0146 177.9016   H        778 ligands_prepared   0.0000
  45 H45    223.6875 155.5933 176.3684   H        778 ligands_prepared   0.0000
  46 H46    223.8743 153.8484 176.6493   H        778 ligands_prepared   0.0000
@<TRIPOS>BOND
   1  1  2    1
   2  1 25    1
   3  1 26    1
   4  1 27    1
   5  2  3    1
   6  3  4   ar
   7  3  8   ar
   8  4  5   ar
   9  4 28    1
  10  5  6   ar
  11  5 20    1
  12  6  7   ar
  13  6 10    1
  14  7  8   ar
  15  7 29    1
  16  8  9    1
  17  9 30    1
  18 10 11    1
  19 10 31    1
  20 10 32    1
  21 11 12    1
  22 11 23    1
  23 11 33    1
  24 12 13   ar
  25 12 20   ar
  26 13 14   ar
  27 13 21    1
  28 14 15   ar
  29 14 34    1
  30 15 16    1
  31 15 17   ar
  32 16 35    1
  33 17 18    1
  34 17 20   ar
  35 18 19    1
  36 19 36    1
  37 19 37    1
  38 19 38    1
  39 21 22    1
  40 21 39    1
  41 21 40    1
  42 22 23    1
  43 22 41    1
  44 22 42    1
  45 23 24    1
  46 23 43    1
  47 24 44    1
  48 24 45    1
  49 24 46    1
