@<TRIPOS>MOLECULE
CHEMBL2177537_LIG
32 34 1 0 0
SMALL
USER_CHARGES

@<TRIPOS>ATOM
   1 C1     219.2887 152.3362 174.5062   C.2      778 ligands_prepared   0.0000
   2 C2     218.6607 152.9497 175.5208   C.2      778 ligands_prepared   0.0000
   3 C3     219.2684 153.0325 176.8495   C.ar     778 ligands_prepared   0.0000
   4 C4     218.5033 153.3948 177.9635   C.ar     778 ligands_prepared   0.0000
   5 C5     219.1075 153.4644 179.2157   C.ar     778 ligands_prepared   0.0000
   6 C6     220.4702 153.1656 179.3213   C.ar     778 ligands_prepared   0.0000
   7 N7     221.2174 152.8161 178.2544   N.ar     778 ligands_prepared   0.0000
   8 C8     220.6310 152.7501 177.0449   C.ar     778 ligands_prepared   0.0000
   9 C9     217.3125 153.5899 175.3754   C.3      778 ligands_prepared   0.0000
  10 C10    216.6028 153.1429 174.0833   C.3      778 ligands_prepared   0.0000
  11 C11    216.1027 151.6865 174.2324   C.3      778 ligands_prepared   0.0000
  12 N12    217.2317 150.4216 174.2031   N.4      778 ligands_prepared   1.0000
  13 C13    218.0786 150.7811 173.0009   C.3      778 ligands_prepared   0.0000
  14 C14    218.6883 152.1964 173.1384   C.3      778 ligands_prepared   0.0000
  15 C15    217.6024 153.2582 172.9243   C.3      778 ligands_prepared   0.0000
  16 H16    220.2729 151.8816 174.6231   H        778 ligands_prepared   0.0000
  17 H17    217.4425 153.6264 177.8476   H        778 ligands_prepared   0.0000
  18 H18    218.5302 153.7442 180.0970   H        778 ligands_prepared   0.0000
  19 H19    220.9948 153.2074 180.2865   H        778 ligands_prepared   0.0000
  20 H20    221.2804 152.4593 176.2077   H        778 ligands_prepared   0.0000
  21 H21    217.4221 154.6972 175.3658   H        778 ligands_prepared   0.0000
  22 H22    216.6741 153.3709 176.2571   H        778 ligands_prepared   0.0000
  23 H23    215.7281 153.8101 173.8942   H        778 ligands_prepared   0.0000
  24 H24    215.3964 151.5872 175.0885   H        778 ligands_prepared   0.0000
  25 H25    215.5363 151.3685 173.3251   H        778 ligands_prepared   0.0000
  26 H26    217.8342 150.3524 175.0560   H        778 ligands_prepared   0.0000
  27 H27    216.8113 149.4766 174.0652   H        778 ligands_prepared   0.0000
  28 H28    218.8751 150.0128 172.8758   H        778 ligands_prepared   0.0000
  29 H29    217.4353 150.7129 172.0932   H        778 ligands_prepared   0.0000
  30 H30    219.4902 152.3173 172.3642   H        778 ligands_prepared   0.0000
  31 H31    217.1135 153.1526 171.9389   H        778 ligands_prepared   0.0000
  32 H32    218.0530 154.2715 172.9042   H        778 ligands_prepared   0.0000
@<TRIPOS>BOND
   1  1  2    2
   2  1 14    1
   3  1 16    1
   4  2  3    1
   5  2  9    1
   6  3  4   ar
   7  3  8   ar
   8  4  5   ar
   9  4 17    1
  10  5  6   ar
  11  5 18    1
  12  6  7   ar
  13  6 19    1
  14  7  8   ar
  15  8 20    1
  16  9 10    1
  17  9 21    1
  18  9 22    1
  19 10 11    1
  20 10 15    1
  21 10 23    1
  22 11 12    1
  23 11 24    1
  24 11 25    1
  25 12 13    1
  26 12 26    1
  27 12 27    1
  28 13 14    1
  29 13 28    1
  30 13 29    1
  31 14 15    1
  32 14 30    1
  33 15 31    1
  34 15 32    1
