@<TRIPOS>MOLECULE
CHEMBL2179873_LIG
45 48 1 0 0
SMALL
USER_CHARGES

@<TRIPOS>ATOM
   1 O1     224.8028 151.2450 176.9991   O.2      778 ligands_prepared   0.0000
   2 C2     224.0589 152.2069 177.1701   C.2      778 ligands_prepared   0.0000
   3 N3     222.7419 152.0092 177.5010   N.am     778 ligands_prepared   0.0000
   4 C4     221.8410 153.1489 177.6494   C.3      778 ligands_prepared   0.0000
   5 C5     221.7576 153.6094 179.1257   C.3      778 ligands_prepared   0.0000
   6 C6     221.1386 152.5194 180.0096   C.3      778 ligands_prepared   0.0000
   7 C7     219.7611 152.1231 179.4582   C.3      778 ligands_prepared   0.0000
   8 N8     219.4015 153.0059 178.2746   N.4      778 ligands_prepared   1.0000
   9 C9     219.4355 154.4575 178.7105   C.3      778 ligands_prepared   0.0000
  10 C10    220.8501 154.8484 179.1616   C.3      778 ligands_prepared   0.0000
  11 C11    220.4089 152.7421 177.1595   C.3      778 ligands_prepared   0.0000
  12 C12    220.0385 153.5022 175.8831   C.3      778 ligands_prepared   0.0000
  13 C13    218.9449 152.8338 175.1237   C.ar     778 ligands_prepared   0.0000
  14 C14    219.2332 151.9280 174.1006   C.ar     778 ligands_prepared   0.0000
  15 C15    218.1872 151.3291 173.4050   C.ar     778 ligands_prepared   0.0000
  16 C16    216.8727 151.6526 173.7591   C.ar     778 ligands_prepared   0.0000
  17 N17    216.5843 152.5103 174.7595   N.ar     778 ligands_prepared   0.0000
  18 C18    217.5991 153.0870 175.4310   C.ar     778 ligands_prepared   0.0000
  19 C19    224.5136 153.5909 177.0427   C.2      778 ligands_prepared   0.0000
  20 C20    224.0716 154.5548 176.1742   C.2      778 ligands_prepared   0.0000
  21 C21    224.7493 155.8050 176.3304   C.2      778 ligands_prepared   0.0000
  22 C22    225.6958 155.7602 177.3137   C.2      778 ligands_prepared   0.0000
  23 Br23   226.7960 157.1735 177.8216   Br       778 ligands_prepared   0.0000
  24 S24    225.7802 154.1992 178.0663   S.3      778 ligands_prepared   0.0000
  25 H25    222.3388 151.0786 177.5751   H        778 ligands_prepared   0.0000
  26 H26    222.2273 154.0050 177.0225   H        778 ligands_prepared   0.0000
  27 H27    222.7778 153.8681 179.4968   H        778 ligands_prepared   0.0000
  28 H28    221.0470 152.8863 181.0532   H        778 ligands_prepared   0.0000
  29 H29    221.8009 151.6346 180.0874   H        778 ligands_prepared   0.0000
  30 H30    218.9658 152.2240 180.2316   H        778 ligands_prepared   0.0000
  31 H31    219.7399 151.0575 179.1326   H        778 ligands_prepared   0.0000
  32 H32    218.4387 152.7629 177.9267   H        778 ligands_prepared   0.0000
  33 H33    218.6955 154.5920 179.5352   H        778 ligands_prepared   0.0000
  34 H34    219.0807 155.1001 177.8735   H        778 ligands_prepared   0.0000
  35 H35    221.2577 155.6598 178.5242   H        778 ligands_prepared   0.0000
  36 H36    220.8254 155.2775 180.1846   H        778 ligands_prepared   0.0000
  37 H37    220.3783 151.6345 176.9548   H        778 ligands_prepared   0.0000
  38 H38    220.9590 153.5889 175.2471   H        778 ligands_prepared   0.0000
  39 H39    219.7860 154.5641 176.1094   H        778 ligands_prepared   0.0000
  40 H40    220.2703 151.6846 173.8479   H        778 ligands_prepared   0.0000
  41 H41    218.3865 150.6230 172.5981   H        778 ligands_prepared   0.0000
  42 H42    216.0116 151.2146 173.2332   H        778 ligands_prepared   0.0000
  43 H43    217.3139 153.7708 176.2440   H        778 ligands_prepared   0.0000
  44 H44    223.2959 154.4184 175.4259   H        778 ligands_prepared   0.0000
  45 H45    224.5055 156.6656 175.7158   H        778 ligands_prepared   0.0000
@<TRIPOS>BOND
   1  1  2    2
   2  2  3   am
   3  2 19    1
   4  3  4    1
   5  3 25    1
   6  4  5    1
   7  4 11    1
   8  4 26    1
   9  5  6    1
  10  5 10    1
  11  5 27    1
  12  6  7    1
  13  6 28    1
  14  6 29    1
  15  7  8    1
  16  7 30    1
  17  7 31    1
  18  8  9    1
  19  8 11    1
  20  8 32    1
  21  9 10    1
  22  9 33    1
  23  9 34    1
  24 10 35    1
  25 10 36    1
  26 11 12    1
  27 11 37    1
  28 12 13    1
  29 12 38    1
  30 12 39    1
  31 13 14   ar
  32 13 18   ar
  33 14 15   ar
  34 14 40    1
  35 15 16   ar
  36 15 41    1
  37 16 17   ar
  38 16 42    1
  39 17 18   ar
  40 18 43    1
  41 19 20    2
  42 19 24    1
  43 20 21    1
  44 20 44    1
  45 21 22    2
  46 21 45    1
  47 22 23    1
  48 22 24    1
