@<TRIPOS>MOLECULE
CHEMBL2177553_LIG
32 34 1 0 0
SMALL
USER_CHARGES

@<TRIPOS>ATOM
   1 F1     218.4996 153.4042 180.2047   F        778 ligands_prepared   0.0000
   2 C2     219.1817 153.1723 179.0953   C.ar     778 ligands_prepared   0.0000
   3 C3     220.5547 152.9057 179.1790   C.ar     778 ligands_prepared   0.0000
   4 N4     221.2735 152.6744 178.0638   N.ar     778 ligands_prepared   0.0000
   5 C5     220.6584 152.6963 176.8686   C.ar     778 ligands_prepared   0.0000
   6 C6     219.2826 152.9547 176.7219   C.ar     778 ligands_prepared   0.0000
   7 C7     218.6509 152.9665 175.4011   C.2      778 ligands_prepared   0.0000
   8 C8     217.3830 153.3765 175.2474   C.2      778 ligands_prepared   0.0000
   9 C9     216.6758 153.3490 173.9239   C.3      778 ligands_prepared   0.0000
  10 C10    215.8140 152.0660 173.8554   C.3      778 ligands_prepared   0.0000
  11 N11    216.6132 151.0506 173.9441   N.4      778 ligands_prepared   1.0000
  12 C12    217.9034 150.8691 173.1794   C.3      778 ligands_prepared   0.0000
  13 C13    218.6692 152.2005 173.0015   C.3      778 ligands_prepared   0.0000
  14 C14    219.5034 152.4983 174.2615   C.3      778 ligands_prepared   0.0000
  15 C15    217.6956 153.3658 172.7795   C.3      778 ligands_prepared   0.0000
  16 C16    218.5234 153.2005 177.8688   C.ar     778 ligands_prepared   0.0000
  17 H17    221.0962 152.8738 180.1361   H        778 ligands_prepared   0.0000
  18 H18    221.2968 152.5046 175.9934   H        778 ligands_prepared   0.0000
  19 H19    216.7816 153.7368 176.0834   H        778 ligands_prepared   0.0000
  20 H20    216.0017 154.2407 173.8388   H        778 ligands_prepared   0.0000
  21 H21    215.0914 152.0240 174.7036   H        778 ligands_prepared   0.0000
  22 H22    215.1992 152.0528 172.9249   H        778 ligands_prepared   0.0000
  23 H23    216.8020 151.0207 174.9729   H        778 ligands_prepared   0.0000
  24 H24    215.9692 150.2533 173.7405   H        778 ligands_prepared   0.0000
  25 H25    218.5274 150.1137 173.7106   H        778 ligands_prepared   0.0000
  26 H26    217.6558 150.4243 172.1867   H        778 ligands_prepared   0.0000
  27 H27    219.3528 152.1105 172.1234   H        778 ligands_prepared   0.0000
  28 H28    220.2642 153.2763 174.0206   H        778 ligands_prepared   0.0000
  29 H29    220.0940 151.6021 174.5504   H        778 ligands_prepared   0.0000
  30 H30    218.2464 154.3283 172.7702   H        778 ligands_prepared   0.0000
  31 H31    217.2049 153.3150 171.7911   H        778 ligands_prepared   0.0000
  32 H32    217.4503 153.4020 177.7956   H        778 ligands_prepared   0.0000
@<TRIPOS>BOND
   1  1  2    1
   2  2  3   ar
   3  2 16   ar
   4  3  4   ar
   5  3 17    1
   6  4  5   ar
   7  5  6   ar
   8  5 18    1
   9  6  7    1
  10  6 16   ar
  11  7  8    2
  12  7 14    1
  13  8  9    1
  14  8 19    1
  15  9 10    1
  16  9 15    1
  17  9 20    1
  18 10 11    1
  19 10 21    1
  20 10 22    1
  21 11 12    1
  22 11 23    1
  23 11 24    1
  24 12 13    1
  25 12 25    1
  26 12 26    1
  27 13 14    1
  28 13 15    1
  29 13 27    1
  30 14 28    1
  31 14 29    1
  32 15 30    1
  33 15 31    1
  34 16 32    1
