@<TRIPOS>MOLECULE
CHEMBL2179878_LIG
52 56 1 0 0
SMALL
USER_CHARGES

@<TRIPOS>ATOM
   1 O1     224.7952 151.2418 176.9952   O.2      778 ligands_prepared   0.0000
   2 C2     224.0367 152.1900 177.1663   C.2      778 ligands_prepared   0.0000
   3 N3     222.7241 151.9842 177.5067   N.am     778 ligands_prepared   0.0000
   4 C4     221.8379 153.1170 177.7637   C.3      778 ligands_prepared   0.0000
   5 C5     221.7161 153.4026 179.2859   C.3      778 ligands_prepared   0.0000
   6 C6     220.9603 154.7288 179.4363   C.3      778 ligands_prepared   0.0000
   7 C7     219.6104 154.6219 178.7105   C.3      778 ligands_prepared   0.0000
   8 N8     219.3754 153.1992 178.2375   N.4      778 ligands_prepared   1.0000
   9 C9     219.4899 152.2562 179.4228   C.3      778 ligands_prepared   0.0000
  10 C10    220.9227 152.2854 179.9751   C.3      778 ligands_prepared   0.0000
  11 C11    220.4193 152.7881 177.2022   C.3      778 ligands_prepared   0.0000
  12 C12    220.1588 153.4861 175.8640   C.3      778 ligands_prepared   0.0000
  13 C13    219.0265 152.8424 175.1354   C.ar     778 ligands_prepared   0.0000
  14 C14    217.7020 153.0986 175.5019   C.ar     778 ligands_prepared   0.0000
  15 C15    216.6708 152.4930 174.7905   C.ar     778 ligands_prepared   0.0000
  16 C16    216.9961 151.6430 173.7261   C.ar     778 ligands_prepared   0.0000
  17 N17    218.2706 151.3794 173.3766   N.ar     778 ligands_prepared   0.0000
  18 C18    219.2663 151.9635 174.0703   C.ar     778 ligands_prepared   0.0000
  19 C19    224.4548 153.5860 177.0407   C.2      778 ligands_prepared   0.0000
  20 C20    223.9965 154.5120 176.1414   C.2      778 ligands_prepared   0.0000
  21 C21    224.6318 155.7863 176.2811   C.2      778 ligands_prepared   0.0000
  22 C22    225.5702 155.8213 177.2797   C.2      778 ligands_prepared   0.0000
  23 C23    226.3962 156.9235 177.6521   C.2      778 ligands_prepared   0.0000
  24 C24    227.2383 157.0193 178.7251   C.2      778 ligands_prepared   0.0000
  25 C25    227.8931 158.2943 178.8259   C.2      778 ligands_prepared   0.0000
  26 C26    227.5528 159.1592 177.8318   C.2      778 ligands_prepared   0.0000
  27 S27    226.4037 158.4313 176.7433   S.3      778 ligands_prepared   0.0000
  28 S28    225.6534 154.2721 178.0973   S.3      778 ligands_prepared   0.0000
  29 H29    222.3664 151.0503 177.7126   H        778 ligands_prepared   0.0000
  30 H30    222.2537 154.0328 177.2526   H        778 ligands_prepared   0.0000
  31 H31    222.7341 153.4803 179.7333   H        778 ligands_prepared   0.0000
  32 H32    220.8117 154.9694 180.5085   H        778 ligands_prepared   0.0000
  33 H33    221.5553 155.5733 179.0328   H        778 ligands_prepared   0.0000
  34 H34    219.5626 155.3106 177.8369   H        778 ligands_prepared   0.0000
  35 H35    218.7678 154.9129 179.3820   H        778 ligands_prepared   0.0000
  36 H36    218.4207 153.1277 177.8053   H        778 ligands_prepared   0.0000
  37 H37    219.1942 151.2306 179.1020   H        778 ligands_prepared   0.0000
  38 H38    218.7478 152.5660 180.1947   H        778 ligands_prepared   0.0000
  39 H39    221.4191 151.3040 179.8414   H        778 ligands_prepared   0.0000
  40 H40    220.9074 152.4424 181.0743   H        778 ligands_prepared   0.0000
  41 H41    220.3095 151.6740 177.0569   H        778 ligands_prepared   0.0000
  42 H42    219.9987 154.5790 175.9955   H        778 ligands_prepared   0.0000
  43 H43    221.0917 153.4353 175.2433   H        778 ligands_prepared   0.0000
  44 H44    217.4787 153.7651 176.3416   H        778 ligands_prepared   0.0000
  45 H45    215.6277 152.6741 175.0531   H        778 ligands_prepared   0.0000
  46 H46    216.2183 151.1472 173.1269   H        778 ligands_prepared   0.0000
  47 H47    220.2870 151.7029 173.7565   H        778 ligands_prepared   0.0000
  48 H48    223.2306 154.3302 175.3918   H        778 ligands_prepared   0.0000
  49 H49    224.3859 156.6237 175.6370   H        778 ligands_prepared   0.0000
  50 H50    227.4200 156.2268 179.4428   H        778 ligands_prepared   0.0000
  51 H51    228.5834 158.5112 179.6321   H        778 ligands_prepared   0.0000
  52 H52    227.9059 160.1691 177.6840   H        778 ligands_prepared   0.0000
@<TRIPOS>BOND
   1  1  2    2
   2  2  3   am
   3  2 19    1
   4  3  4    1
   5  3 29    1
   6  4  5    1
   7  4 11    1
   8  4 30    1
   9  5  6    1
  10  5 10    1
  11  5 31    1
  12  6  7    1
  13  6 32    1
  14  6 33    1
  15  7  8    1
  16  7 34    1
  17  7 35    1
  18  8  9    1
  19  8 11    1
  20  8 36    1
  21  9 10    1
  22  9 37    1
  23  9 38    1
  24 10 39    1
  25 10 40    1
  26 11 12    1
  27 11 41    1
  28 12 13    1
  29 12 42    1
  30 12 43    1
  31 13 14   ar
  32 13 18   ar
  33 14 15   ar
  34 14 44    1
  35 15 16   ar
  36 15 45    1
  37 16 17   ar
  38 16 46    1
  39 17 18   ar
  40 18 47    1
  41 19 20    2
  42 19 28    1
  43 20 21    1
  44 20 48    1
  45 21 22    2
  46 21 49    1
  47 22 23    1
  48 22 28    1
  49 23 24    2
  50 23 27    1
  51 24 25    1
  52 24 50    1
  53 25 26    2
  54 25 51    1
  55 26 27    1
  56 26 52    1
