@<TRIPOS>MOLECULE
CHEMBL3329537_LIG
27 29 1 0 0
SMALL
USER_CHARGES

@<TRIPOS>ATOM
   1 O1     220.8236 152.5732 176.1081   O.2      778 ligands_prepared   0.0000
   2 C2     219.6630 152.9102 176.3249   C.2      778 ligands_prepared   0.0000
   3 C3     219.2532 153.6179 177.5654   C.3      778 ligands_prepared   0.0000
   4 C4     219.0970 152.8145 178.8451   C.3      778 ligands_prepared   0.0000
   5 C5     220.2254 153.7976 178.7225   C.3      778 ligands_prepared   0.0000
   6 F6     221.4477 153.2752 178.5388   F        778 ligands_prepared   0.0000
   7 N7     218.7003 152.5818 175.4080   N.am     778 ligands_prepared   0.0000
   8 C8     217.3024 153.0382 175.5546   C.3      778 ligands_prepared   0.0000
   9 C9     216.4034 152.4220 174.4758   C.3      778 ligands_prepared   0.0000
  10 C10    217.0456 152.6388 173.0754   C.3      778 ligands_prepared   0.0000
  11 C11    217.8992 151.3767 173.3870   C.3      778 ligands_prepared   0.0000
  12 C12    219.1113 151.7824 174.2304   C.3      778 ligands_prepared   0.0000
  13 N13    216.7840 150.9234 174.3678   N.4      778 ligands_prepared   1.0000
  14 H14    218.5288 154.4286 177.3654   H        778 ligands_prepared   0.0000
  15 H15    218.2585 153.0329 179.5121   H        778 ligands_prepared   0.0000
  16 H16    219.2845 151.7381 178.8257   H        778 ligands_prepared   0.0000
  17 H17    220.2644 154.7431 179.2906   H        778 ligands_prepared   0.0000
  18 H18    216.9276 152.7692 176.5750   H        778 ligands_prepared   0.0000
  19 H19    217.2508 154.1538 175.4817   H        778 ligands_prepared   0.0000
  20 H20    215.3278 152.6192 174.6092   H        778 ligands_prepared   0.0000
  21 H21    216.3526 152.5309 172.2293   H        778 ligands_prepared   0.0000
  22 H22    217.5921 153.5764 172.9242   H        778 ligands_prepared   0.0000
  23 H23    218.1177 150.6604 172.5784   H        778 ligands_prepared   0.0000
  24 H24    219.8293 152.3689 173.6014   H        778 ligands_prepared   0.0000
  25 H25    219.6757 150.8816 174.5845   H        778 ligands_prepared   0.0000
  26 H26    216.0538 150.3341 173.9343   H        778 ligands_prepared   0.0000
  27 H27    217.0963 150.4702 175.2387   H        778 ligands_prepared   0.0000
@<TRIPOS>BOND
   1  1  2    2
   2  2  3    1
   3  2  7   am
   4  3  4    1
   5  3  5    1
   6  3 14    1
   7  4  5    1
   8  4 15    1
   9  4 16    1
  10  5  6    1
  11  5 17    1
  12  8  7    1
  13  7 12    1
  14  8  9    1
  15  8 18    1
  16  8 19    1
  17  9 10    1
  18  9 13    1
  19  9 20    1
  20 10 11    1
  21 10 21    1
  22 10 22    1
  23 11 12    1
  24 11 13    1
  25 11 23    1
  26 12 24    1
  27 12 25    1
  28 13 26    1
  29 13 27    1
