@<TRIPOS>MOLECULE
CHEMBL3329543_LIG
30 32 1 0 0
SMALL
USER_CHARGES

@<TRIPOS>ATOM
   1 C1     218.4998 153.1062 179.8293   C.3      778 ligands_prepared   0.0000
   2 C2     219.5193 152.8889 178.7489   C.3      778 ligands_prepared   0.0000
   3 C3     220.4645 154.0038 178.3708   C.3      778 ligands_prepared   0.0000
   4 C4     219.3637 153.6051 177.4111   C.3      778 ligands_prepared   0.0000
   5 C5     219.7191 152.8518 176.1801   C.2      778 ligands_prepared   0.0000
   6 O6     220.8561 152.4432 175.9624   O.2      778 ligands_prepared   0.0000
   7 N7     218.7441 152.5943 175.2499   N.am     778 ligands_prepared   0.0000
   8 C8     217.3483 153.0385 175.4368   C.3      778 ligands_prepared   0.0000
   9 C9     216.4051 152.2644 174.5022   C.3      778 ligands_prepared   0.0000
  10 C10    216.8819 152.4591 173.0334   C.3      778 ligands_prepared   0.0000
  11 C11    217.8816 151.3015 173.3160   C.3      778 ligands_prepared   0.0000
  12 C12    219.1245 151.8771 174.0091   C.3      778 ligands_prepared   0.0000
  13 N13    216.9207 150.8020 174.4270   N.4      778 ligands_prepared   1.0000
  14 H14    217.6417 152.4285 179.7127   H        778 ligands_prepared   0.0000
  15 H15    218.1040 154.1292 179.8381   H        778 ligands_prepared   0.0000
  16 H16    218.9356 152.9202 180.8218   H        778 ligands_prepared   0.0000
  17 H17    219.9017 151.8564 178.7184   H        778 ligands_prepared   0.0000
  18 H18    220.4034 154.9674 178.8747   H        778 ligands_prepared   0.0000
  19 H19    221.5005 153.7814 178.1250   H        778 ligands_prepared   0.0000
  20 H20    218.5089 154.2807 177.2653   H        778 ligands_prepared   0.0000
  21 H21    217.0454 152.9005 176.5040   H        778 ligands_prepared   0.0000
  22 H22    217.2581 154.1335 175.2226   H        778 ligands_prepared   0.0000
  23 H23    215.3349 152.3609 174.7402   H        778 ligands_prepared   0.0000
  24 H24    217.3188 153.4340 172.7902   H        778 ligands_prepared   0.0000
  25 H25    216.1269 152.2467 172.2659   H        778 ligands_prepared   0.0000
  26 H26    218.0913 150.5649 172.5249   H        778 ligands_prepared   0.0000
  27 H27    219.6509 152.5761 173.3129   H        778 ligands_prepared   0.0000
  28 H28    219.8599 151.0721 174.2588   H        778 ligands_prepared   0.0000
  29 H29    217.3640 150.4327 175.2802   H        778 ligands_prepared   0.0000
  30 H30    216.2159 150.1221 174.1004   H        778 ligands_prepared   0.0000
@<TRIPOS>BOND
   1  1  2    1
   2  1 14    1
   3  1 15    1
   4  1 16    1
   5  2  3    1
   6  2  4    1
   7  2 17    1
   8  3  4    1
   9  3 18    1
  10  3 19    1
  11  4  5    1
  12  4 20    1
  13  5  6    2
  14  5  7   am
  15  8  7    1
  16  7 12    1
  17  8  9    1
  18  8 21    1
  19  8 22    1
  20  9 10    1
  21  9 13    1
  22  9 23    1
  23 10 11    1
  24 10 24    1
  25 10 25    1
  26 11 12    1
  27 11 13    1
  28 11 26    1
  29 12 27    1
  30 12 28    1
  31 13 29    1
  32 13 30    1
