@<TRIPOS>MOLECULE
CHEMBL2435282_LIG
34 36 1 0 0
SMALL
USER_CHARGES

@<TRIPOS>ATOM
   1 N1     228.6971 157.6610 175.5499   N.1      778 ligands_prepared   0.0000
   2 C2     228.1248 157.1245 176.4043   C.1      778 ligands_prepared   0.0000
   3 C3     227.4204 156.4414 177.4277   C.2      778 ligands_prepared   0.0000
   4 C4     226.7812 155.2781 177.2171   C.2      778 ligands_prepared   0.0000
   5 C5     226.7464 154.5852 175.8892   C.3      778 ligands_prepared   0.0000
   6 N6     225.9445 153.3067 176.0026   N.4      778 ligands_prepared   1.0000
   7 C7     226.5950 152.4123 177.0410   C.3      778 ligands_prepared   0.0000
   8 C8     226.6564 153.1286 178.3994   C.3      778 ligands_prepared   0.0000
   9 C9     226.0252 154.5273 178.2768   C.3      778 ligands_prepared   0.0000
  10 C10    224.5690 154.3854 177.7989   C.3      778 ligands_prepared   0.0000
  11 C11    224.5360 153.6512 176.4492   C.3      778 ligands_prepared   0.0000
  12 C12    227.4470 157.1131 178.7386   C.ar     778 ligands_prepared   0.0000
  13 C13    227.7520 156.3796 179.8857   C.ar     778 ligands_prepared   0.0000
  14 C14    227.7848 157.0195 181.1220   C.ar     778 ligands_prepared   0.0000
  15 C15    227.5145 158.3842 181.2095   C.ar     778 ligands_prepared   0.0000
  16 C16    227.1995 159.1108 180.0625   C.ar     778 ligands_prepared   0.0000
  17 C17    227.1649 158.4773 178.8223   C.ar     778 ligands_prepared   0.0000
  18 H18    227.7781 154.3430 175.5212   H        778 ligands_prepared   0.0000
  19 H19    226.2932 155.2346 175.0944   H        778 ligands_prepared   0.0000
  20 H20    225.9178 152.8166 175.0685   H        778 ligands_prepared   0.0000
  21 H21    226.0151 151.4635 177.1074   H        778 ligands_prepared   0.0000
  22 H22    227.6119 152.1292 176.6838   H        778 ligands_prepared   0.0000
  23 H23    226.1272 152.5404 179.1764   H        778 ligands_prepared   0.0000
  24 H24    227.7026 153.2028 178.7575   H        778 ligands_prepared   0.0000
  25 H25    226.0529 155.0466 179.2651   H        778 ligands_prepared   0.0000
  26 H26    223.9727 153.8368 178.5568   H        778 ligands_prepared   0.0000
  27 H27    224.0858 155.3789 177.7174   H        778 ligands_prepared   0.0000
  28 H28    223.9432 152.7096 176.5129   H        778 ligands_prepared   0.0000
  29 H29    224.0513 154.2706 175.6598   H        778 ligands_prepared   0.0000
  30 H30    227.9657 155.3124 179.8123   H        778 ligands_prepared   0.0000
  31 H31    228.0220 156.4497 182.0215   H        778 ligands_prepared   0.0000
  32 H32    227.5500 158.8855 182.1786   H        778 ligands_prepared   0.0000
  33 H33    226.9787 160.1781 180.1327   H        778 ligands_prepared   0.0000
  34 H34    226.9216 159.0423 177.9218   H        778 ligands_prepared   0.0000
@<TRIPOS>BOND
   1  1  2    3
   2  2  3    1
   3  3  4    2
   4  3 12    1
   5  4  5    1
   6  4  9    1
   7  5  6    1
   8  5 18    1
   9  5 19    1
  10  6  7    1
  11  6 11    1
  12  6 20    1
  13  7  8    1
  14  7 21    1
  15  7 22    1
  16  8  9    1
  17  8 23    1
  18  8 24    1
  19  9 10    1
  20  9 25    1
  21 10 11    1
  22 10 26    1
  23 10 27    1
  24 11 28    1
  25 11 29    1
  26 12 13   ar
  27 12 17   ar
  28 13 14   ar
  29 13 30    1
  30 14 15   ar
  31 14 31    1
  32 15 16   ar
  33 15 32    1
  34 16 17   ar
  35 16 33    1
  36 17 34    1
