@<TRIPOS>MOLECULE
CHEMBL2179843_LIG
56 59 1 0 0
SMALL
USER_CHARGES

@<TRIPOS>ATOM
   1 C1     225.7085 158.2387 176.0015   C.3      778 ligands_prepared   0.0000
   2 N2     226.3438 157.2365 176.8735   N.3      778 ligands_prepared   0.0000
   3 C3     226.8644 157.7971 178.1325   C.3      778 ligands_prepared   0.0000
   4 C4     225.7791 155.9665 176.9186   C.ar     778 ligands_prepared   0.0000
   5 C5     224.5296 155.7158 176.3006   C.ar     778 ligands_prepared   0.0000
   6 C6     223.9175 154.4807 176.4249   C.ar     778 ligands_prepared   0.0000
   7 C7     224.5292 153.4494 177.1446   C.ar     778 ligands_prepared   0.0000
   8 C8     223.9759 152.0868 177.2382   C.2      778 ligands_prepared   0.0000
   9 O9     224.6790 151.0817 177.1741   O.2      778 ligands_prepared   0.0000
  10 N10    222.6139 151.9549 177.3693   N.am     778 ligands_prepared   0.0000
  11 C11    221.7349 153.1171 177.5310   C.3      778 ligands_prepared   0.0000
  12 C12    221.7193 153.5484 179.0210   C.3      778 ligands_prepared   0.0000
  13 C13    220.8825 154.8292 179.1247   C.3      778 ligands_prepared   0.0000
  14 C14    219.4366 154.5333 178.7032   C.3      778 ligands_prepared   0.0000
  15 N15    219.3112 153.0964 178.2335   N.4      778 ligands_prepared   1.0000
  16 C16    219.6473 152.1724 179.3878   C.3      778 ligands_prepared   0.0000
  17 C17    221.0740 152.4545 179.8841   C.3      778 ligands_prepared   0.0000
  18 C18    220.2724 152.8038 177.0808   C.3      778 ligands_prepared   0.0000
  19 C19    219.8905 153.6309 175.8479   C.3      778 ligands_prepared   0.0000
  20 C20    218.7821 153.0049 175.0726   C.ar     778 ligands_prepared   0.0000
  21 C21    217.4584 153.4166 175.2533   C.ar     778 ligands_prepared   0.0000
  22 C22    216.4514 152.8140 174.5051   C.ar     778 ligands_prepared   0.0000
  23 C23    216.7986 151.8034 173.6011   C.ar     778 ligands_prepared   0.0000
  24 N24    218.0691 151.3876 173.4345   N.ar     778 ligands_prepared   0.0000
  25 C25    219.0425 151.9744 174.1583   C.ar     778 ligands_prepared   0.0000
  26 C26    225.7405 153.7017 177.7978   C.ar     778 ligands_prepared   0.0000
  27 C27    226.3625 154.9317 177.6891   C.ar     778 ligands_prepared   0.0000
  28 H28    225.7550 157.9057 174.9472   H        778 ligands_prepared   0.0000
  29 H29    224.6547 158.4381 176.2633   H        778 ligands_prepared   0.0000
  30 H30    226.2561 159.1963 176.0538   H        778 ligands_prepared   0.0000
  31 H31    227.2160 158.8334 177.9791   H        778 ligands_prepared   0.0000
  32 H32    226.1147 157.8124 178.9418   H        778 ligands_prepared   0.0000
  33 H33    227.7382 157.2112 178.4752   H        778 ligands_prepared   0.0000
  34 H34    224.0339 156.4934 175.7207   H        778 ligands_prepared   0.0000
  35 H35    222.9417 154.3249 175.9543   H        778 ligands_prepared   0.0000
  36 H36    222.1716 151.0411 177.4218   H        778 ligands_prepared   0.0000
  37 H37    222.1471 153.9567 176.9015   H        778 ligands_prepared   0.0000
  38 H38    222.7620 153.7469 179.3722   H        778 ligands_prepared   0.0000
  39 H39    221.3174 155.6392 178.5046   H        778 ligands_prepared   0.0000
  40 H40    220.9129 155.2224 180.1618   H        778 ligands_prepared   0.0000
  41 H41    219.0989 155.2160 177.8925   H        778 ligands_prepared   0.0000
  42 H42    218.7280 154.6911 179.5516   H        778 ligands_prepared   0.0000
  43 H43    218.3248 152.9252 177.9049   H        778 ligands_prepared   0.0000
  44 H44    219.5293 151.1156 179.0510   H        778 ligands_prepared   0.0000
  45 H45    218.8971 152.3204 180.1988   H        778 ligands_prepared   0.0000
  46 H46    221.6797 151.5275 179.8750   H        778 ligands_prepared   0.0000
  47 H47    221.0597 152.7696 180.9473   H        778 ligands_prepared   0.0000
  48 H48    220.1693 151.7070 176.8440   H        778 ligands_prepared   0.0000
  49 H49    219.6617 154.6835 176.1227   H        778 ligands_prepared   0.0000
  50 H50    220.8027 153.7252 175.1971   H        778 ligands_prepared   0.0000
  51 H51    217.2180 154.1983 175.9803   H        778 ligands_prepared   0.0000
  52 H52    215.4111 153.1191 174.6185   H        778 ligands_prepared   0.0000
  53 H53    216.0411 151.2977 172.9842   H        778 ligands_prepared   0.0000
  54 H54    220.0595 151.5887 173.9978   H        778 ligands_prepared   0.0000
  55 H55    226.2009 152.9066 178.3953   H        778 ligands_prepared   0.0000
  56 H56    227.3116 155.0914 178.2010   H        778 ligands_prepared   0.0000
@<TRIPOS>BOND
   1  1  2    1
   2  1 28    1
   3  1 29    1
   4  1 30    1
   5  2  3    1
   6  2  4    1
   7  3 31    1
   8  3 32    1
   9  3 33    1
  10  4  5   ar
  11  4 27   ar
  12  5  6   ar
  13  5 34    1
  14  6  7   ar
  15  6 35    1
  16  7  8    1
  17  7 26   ar
  18  8  9    2
  19  8 10   am
  20 10 11    1
  21 10 36    1
  22 11 12    1
  23 11 18    1
  24 11 37    1
  25 12 13    1
  26 12 17    1
  27 12 38    1
  28 13 14    1
  29 13 39    1
  30 13 40    1
  31 14 15    1
  32 14 41    1
  33 14 42    1
  34 15 16    1
  35 15 18    1
  36 15 43    1
  37 16 17    1
  38 16 44    1
  39 16 45    1
  40 17 46    1
  41 17 47    1
  42 18 19    1
  43 18 48    1
  44 19 20    1
  45 19 49    1
  46 19 50    1
  47 20 21   ar
  48 20 25   ar
  49 21 22   ar
  50 21 51    1
  51 22 23   ar
  52 22 52    1
  53 23 24   ar
  54 23 53    1
  55 24 25   ar
  56 25 54    1
  57 26 27   ar
  58 26 55    1
  59 27 56    1
