@<TRIPOS>MOLECULE
CHEMBL2381565_nacw_LIG
39 41 1 0 0
SMALL
USER_CHARGES

@<TRIPOS>ATOM
   1 C1     227.0716 152.3027 177.4134   C.3      778 ligands_prepared   0.0000
   2 N2     226.0369 152.8514 176.4787   N.4      778 ligands_prepared   1.0000
   3 C3     226.5760 154.0369 175.9789   C.3      778 ligands_prepared   0.0000
   4 C4     225.6364 155.1567 176.4511   C.3      778 ligands_prepared   0.0000
   5 C5     224.2719 154.4983 176.7184   C.3      778 ligands_prepared   0.0000
   6 C6     224.5830 153.1918 177.4618   C.3      778 ligands_prepared   0.0000
   7 C7     223.4176 152.2136 177.4884   C.3      778 ligands_prepared   0.0000
   8 O8     222.2649 152.7813 176.8717   O.3      778 ligands_prepared   0.0000
   9 C9     221.1680 153.0161 177.6277   C.2      778 ligands_prepared   0.0000
  10 O10    221.2438 153.2466 178.8154   O.2      778 ligands_prepared   0.0000
  11 C11    219.9479 152.9685 176.8248   C.ar     778 ligands_prepared   0.0000
  12 C12    218.6954 153.3945 177.3647   C.ar     778 ligands_prepared   0.0000
  13 N13    217.5799 153.3829 176.6602   N.ar     778 ligands_prepared   0.0000
  14 C14    217.6148 152.9388 175.3526   C.ar     778 ligands_prepared   0.0000
  15 C15    216.4061 152.9374 174.6029   C.ar     778 ligands_prepared   0.0000
  16 C16    216.4187 152.4958 173.3040   C.ar     778 ligands_prepared   0.0000
  17 C17    217.6187 152.0421 172.7005   C.ar     778 ligands_prepared   0.0000
  18 C18    218.7956 152.0400 173.4046   C.ar     778 ligands_prepared   0.0000
  19 C19    218.8187 152.4906 174.7496   C.ar     778 ligands_prepared   0.0000
  20 C20    220.0066 152.5147 175.5235   C.ar     778 ligands_prepared   0.0000
  21 H21    227.9236 151.8724 176.8523   H        778 ligands_prepared   0.0000
  22 H22    226.6444 151.4796 178.0195   H        778 ligands_prepared   0.0000
  23 H23    227.4521 153.0726 178.1073   H        778 ligands_prepared   0.0000
  24 H24    225.8003 152.1070 175.7716   H        778 ligands_prepared   0.0000
  25 H25    226.7037 154.0156 174.8768   H        778 ligands_prepared   0.0000
  26 H26    227.5954 154.1436 176.4130   H        778 ligands_prepared   0.0000
  27 H27    225.5520 155.9598 175.6949   H        778 ligands_prepared   0.0000
  28 H28    226.0353 155.6466 177.3596   H        778 ligands_prepared   0.0000
  29 H29    223.7204 154.3174 175.7761   H        778 ligands_prepared   0.0000
  30 H30    223.6153 155.1538 177.3234   H        778 ligands_prepared   0.0000
  31 H31    224.8753 153.4304 178.5292   H        778 ligands_prepared   0.0000
  32 H32    223.1483 151.8319 178.4914   H        778 ligands_prepared   0.0000
  33 H33    223.6041 151.3389 176.8200   H        778 ligands_prepared   0.0000
  34 H34    218.6298 153.7548 178.4071   H        778 ligands_prepared   0.0000
  35 H35    215.4907 153.2899 175.0805   H        778 ligands_prepared   0.0000
  36 H36    215.4974 152.4873 172.7118   H        778 ligands_prepared   0.0000
  37 H37    217.5895 151.6947 171.6639   H        778 ligands_prepared   0.0000
  38 H38    219.7279 151.6947 172.9482   H        778 ligands_prepared   0.0000
  39 H39    220.9527 152.1745 175.0803   H        778 ligands_prepared   0.0000
@<TRIPOS>BOND
   1  1  2    1
   2  1 21    1
   3  1 22    1
   4  1 23    1
   5  3  2    1
   6  2  6    1
   7  2 24    1
   8  3  4    1
   9  3 25    1
  10  3 26    1
  11  4  5    1
  12  4 27    1
  13  4 28    1
  14  5  6    1
  15  5 29    1
  16  5 30    1
  17  6  7    1
  18  6 31    1
  19  7  8    1
  20  7 32    1
  21  7 33    1
  22  8  9    1
  23  9 10    2
  24  9 11    1
  25 11 12   ar
  26 11 20   ar
  27 12 13   ar
  28 12 34    1
  29 13 14   ar
  30 14 15   ar
  31 14 19   ar
  32 15 16   ar
  33 15 35    1
  34 16 17   ar
  35 16 36    1
  36 17 18   ar
  37 17 37    1
  38 18 19   ar
  39 18 38    1
  40 19 20   ar
  41 20 39    1
