@<TRIPOS>MOLECULE
CHEMBL2179558_LIG
30 32 1 0 0
SMALL
USER_CHARGES

@<TRIPOS>ATOM
   1 O1     217.0971 153.7046 177.3286   O.2      778 ligands_prepared   0.0000
   2 C2     218.1013 153.3057 176.7317   C.2      778 ligands_prepared   0.0000
   3 C3     219.3346 153.1726 177.5024   C.2      778 ligands_prepared   0.0000
   4 C4     219.4914 153.0975 178.8668   C.2      778 ligands_prepared   0.0000
   5 C5     220.9039 153.0503 179.1186   C.2      778 ligands_prepared   0.0000
   6 C6     221.4960 153.0944 177.8854   C.2      778 ligands_prepared   0.0000
   7 Br7    223.2365 153.0845 177.2908   Br       778 ligands_prepared   0.0000
   8 O8     220.5724 153.1703 176.8698   O.3      778 ligands_prepared   0.0000
   9 N9     217.9937 153.0012 175.4033   N.am     778 ligands_prepared   0.0000
  10 C10    219.1392 152.6147 174.5578   C.3      778 ligands_prepared   0.0000
  11 C11    218.6952 151.8539 173.2907   C.3      778 ligands_prepared   0.0000
  12 C12    217.9398 150.5648 173.6658   C.3      778 ligands_prepared   0.0000
  13 N13    216.4923 151.0031 173.8755   N.4      778 ligands_prepared   1.0000
  14 C14    216.4443 152.4945 173.5100   C.3      778 ligands_prepared   0.0000
  15 C15    217.6253 152.6732 172.5505   C.3      778 ligands_prepared   0.0000
  16 C16    216.7049 153.3429 174.7646   C.3      778 ligands_prepared   0.0000
  17 H17    218.7124 153.0820 179.6103   H        778 ligands_prepared   0.0000
  18 H18    221.3660 152.9992 180.0868   H        778 ligands_prepared   0.0000
  19 H19    219.7214 153.5234 174.2712   H        778 ligands_prepared   0.0000
  20 H20    219.8255 151.9498 175.1373   H        778 ligands_prepared   0.0000
  21 H21    219.5821 151.6398 172.6541   H        778 ligands_prepared   0.0000
  22 H22    217.9875 149.8084 172.8566   H        778 ligands_prepared   0.0000
  23 H23    218.3292 150.0810 174.5843   H        778 ligands_prepared   0.0000
  24 H24    215.8426 150.4528 173.2773   H        778 ligands_prepared   0.0000
  25 H25    216.1927 150.8513 174.8620   H        778 ligands_prepared   0.0000
  26 H26    215.4479 152.7314 173.0653   H        778 ligands_prepared   0.0000
  27 H27    217.4164 152.2825 171.5359   H        778 ligands_prepared   0.0000
  28 H28    217.9037 153.7315 172.4057   H        778 ligands_prepared   0.0000
  29 H29    216.6941 154.4257 174.4841   H        778 ligands_prepared   0.0000
  30 H30    215.8745 153.2137 175.5054   H        778 ligands_prepared   0.0000
@<TRIPOS>BOND
   1  1  2    2
   2  2  3    1
   3  2  9   am
   4  3  4    2
   5  3  8    1
   6  4  5    1
   7  4 17    1
   8  5  6    2
   9  5 18    1
  10  6  7    1
  11  6  8    1
  12 10  9    1
  13  9 16    1
  14 10 11    1
  15 10 19    1
  16 10 20    1
  17 11 12    1
  18 11 15    1
  19 11 21    1
  20 12 13    1
  21 12 22    1
  22 12 23    1
  23 13 14    1
  24 13 24    1
  25 13 25    1
  26 14 15    1
  27 14 16    1
  28 14 26    1
  29 15 27    1
  30 15 28    1
  31 16 29    1
  32 16 30    1
