@<TRIPOS>MOLECULE
CHEMBL113076_LIG
27 27 1 0 0
SMALL
USER_CHARGES

@<TRIPOS>ATOM
   1 C1     216.1071 152.2034 172.7224   C.3      778 ligands_prepared   0.0000
   2 N2     216.9801 151.3028 173.5434   N.4      778 ligands_prepared   1.0000
   3 C3     218.3760 151.3109 172.9942   C.3      778 ligands_prepared   0.0000
   4 C4     217.0098 151.7501 174.9888   C.3      778 ligands_prepared   0.0000
   5 C5     217.4357 153.2110 175.1067   C.3      778 ligands_prepared   0.0000
   6 O6     217.6219 153.3797 176.5188   O.3      778 ligands_prepared   0.0000
   7 C7     218.8691 153.2079 177.0088   C.ar     778 ligands_prepared   0.0000
   8 C8     219.9684 152.6857 176.3038   C.ar     778 ligands_prepared   0.0000
   9 N9     221.1621 152.5099 176.8984   N.ar     778 ligands_prepared   0.0000
  10 C10    221.3125 152.8392 178.1909   C.ar     778 ligands_prepared   0.0000
  11 C11    220.2487 153.3747 178.9302   C.ar     778 ligands_prepared   0.0000
  12 Cl12   220.4990 153.7793 180.5620   Cl       778 ligands_prepared   0.0000
  13 C13    219.0058 153.5749 178.3564   C.ar     778 ligands_prepared   0.0000
  14 H14    216.4678 153.2477 172.7325   H        778 ligands_prepared   0.0000
  15 H15    215.0652 152.1976 173.0933   H        778 ligands_prepared   0.0000
  16 H16    216.0798 151.8628 171.6687   H        778 ligands_prepared   0.0000
  17 H17    216.5940 150.3195 173.5056   H        778 ligands_prepared   0.0000
  18 H18    219.0309 150.6318 173.5732   H        778 ligands_prepared   0.0000
  19 H19    218.3836 150.9590 171.9432   H        778 ligands_prepared   0.0000
  20 H20    218.8198 152.3225 173.0199   H        778 ligands_prepared   0.0000
  21 H21    217.6928 151.0993 175.5877   H        778 ligands_prepared   0.0000
  22 H22    215.9884 151.6090 175.4296   H        778 ligands_prepared   0.0000
  23 H23    218.3953 153.3856 174.5756   H        778 ligands_prepared   0.0000
  24 H24    216.6759 153.9266 174.7411   H        778 ligands_prepared   0.0000
  25 H25    219.9045 152.4000 175.2457   H        778 ligands_prepared   0.0000
  26 H26    222.3071 152.6663 178.6301   H        778 ligands_prepared   0.0000
  27 H27    218.1558 153.9946 178.9018   H        778 ligands_prepared   0.0000
@<TRIPOS>BOND
   1  1  2    1
   2  1 14    1
   3  1 15    1
   4  1 16    1
   5  2  3    1
   6  2  4    1
   7  2 17    1
   8  3 18    1
   9  3 19    1
  10  3 20    1
  11  4  5    1
  12  4 21    1
  13  4 22    1
  14  5  6    1
  15  5 23    1
  16  5 24    1
  17  6  7    1
  18  7  8   ar
  19  7 13   ar
  20  8  9   ar
  21  8 25    1
  22  9 10   ar
  23 10 11   ar
  24 10 26    1
  25 11 12    1
  26 11 13   ar
  27 13 27    1
