@<TRIPOS>MOLECULE
CHEMBL2179864_LIG
45 48 1 0 0
SMALL
USER_CHARGES

@<TRIPOS>ATOM
   1 O1     224.7279 151.0554 176.9009   O.2      778 ligands_prepared   0.0000
   2 C2     224.0377 152.0402 177.1330   C.2      778 ligands_prepared   0.0000
   3 N3     222.7068 151.9221 177.4316   N.am     778 ligands_prepared   0.0000
   4 C4     221.9083 153.1212 177.6793   C.3      778 ligands_prepared   0.0000
   5 C5     221.9744 153.5314 179.1709   C.3      778 ligands_prepared   0.0000
   6 C6     221.1753 154.8364 179.3111   C.3      778 ligands_prepared   0.0000
   7 C7     219.7007 154.5711 178.9743   C.3      778 ligands_prepared   0.0000
   8 N8     219.5200 153.1448 178.4914   N.4      778 ligands_prepared   0.0000
   9 C9     219.8963 152.1910 179.6119   C.3      778 ligands_prepared   0.0000
  10 C10    221.3376 152.4604 180.0669   C.3      778 ligands_prepared   0.0000
  11 C11    220.4155 152.8522 177.2909   C.3      778 ligands_prepared   0.0000
  12 C12    220.0028 153.6939 176.0797   C.3      778 ligands_prepared   0.0000
  13 C13    218.9588 153.0183 175.2570   C.ar     778 ligands_prepared   0.0000
  14 C14    217.6108 153.3602 175.3827   C.ar     778 ligands_prepared   0.0000
  15 C15    216.6649 152.6993 174.6046   C.ar     778 ligands_prepared   0.0000
  16 C16    217.0993 151.7141 173.7110   C.ar     778 ligands_prepared   0.0000
  17 N17    218.3997 151.3878 173.5722   N.ar     778 ligands_prepared   0.0000
  18 C18    219.3116 152.0278 174.3280   C.ar     778 ligands_prepared   0.0000
  19 C19    224.5684 153.4058 177.0960   C.2      778 ligands_prepared   0.0000
  20 C20    224.2503 154.5537 176.4165   C.2      778 ligands_prepared   0.0000
  21 C21    225.2135 155.5247 176.8453   C.2      778 ligands_prepared   0.0000
  22 Cl22   225.2872 157.1081 176.3104   Cl       778 ligands_prepared   0.0000
  23 C23    226.0423 154.9163 177.7541   C.2      778 ligands_prepared   0.0000
  24 O24    225.6689 153.6087 177.9230   O.3      778 ligands_prepared   0.0000
  25 H25    222.2243 151.0248 177.4209   H        778 ligands_prepared   0.0000
  26 H26    222.3160 153.9639 177.0474   H        778 ligands_prepared   0.0000
  27 H27    223.0373 153.6959 179.4701   H        778 ligands_prepared   0.0000
  28 H28    221.2722 155.2373 180.3405   H        778 ligands_prepared   0.0000
  29 H29    221.5931 155.6275 178.6567   H        778 ligands_prepared   0.0000
  30 H30    219.3249 155.2725 178.1958   H        778 ligands_prepared   0.0000
  31 H31    219.0481 154.7243 179.8666   H        778 ligands_prepared   0.0000
  32 H32    218.5167 152.9911 178.2121   H        778 ligands_prepared   0.0000
  33 H33    219.1734 152.3222 180.4498   H        778 ligands_prepared   0.0000
  34 H34    219.7653 151.1438 179.2539   H        778 ligands_prepared   0.0000
  35 H35    221.3528 152.7970 181.1248   H        778 ligands_prepared   0.0000
  36 H36    221.9297 151.5233 180.0691   H        778 ligands_prepared   0.0000
  37 H37    220.2785 151.7601 177.0482   H        778 ligands_prepared   0.0000
  38 H38    219.6767 154.7137 176.3896   H        778 ligands_prepared   0.0000
  39 H39    220.9174 153.8961 175.4623   H        778 ligands_prepared   0.0000
  40 H40    217.2967 154.1414 176.0808   H        778 ligands_prepared   0.0000
  41 H41    215.6042 152.9430 174.6889   H        778 ligands_prepared   0.0000
  42 H42    216.3908 151.1596 173.0780   H        778 ligands_prepared   0.0000
  43 H43    220.3595 151.7292 174.1767   H        778 ligands_prepared   0.0000
  44 H44    223.4578 154.7116 175.7037   H        778 ligands_prepared   0.0000
  45 H45    226.8879 155.2108 178.3498   H        778 ligands_prepared   0.0000
@<TRIPOS>BOND
   1  1  2    2
   2  2  3   am
   3  2 19    1
   4  3  4    1
   5  3 25    1
   6  4  5    1
   7  4 11    1
   8  4 26    1
   9  5  6    1
  10  5 10    1
  11  5 27    1
  12  6  7    1
  13  6 28    1
  14  6 29    1
  15  7  8    1
  16  7 30    1
  17  7 31    1
  18  8  9    1
  19  8 11    1
  20  8 32    1
  21  9 10    1
  22  9 33    1
  23  9 34    1
  24 10 35    1
  25 10 36    1
  26 11 12    1
  27 11 37    1
  28 12 13    1
  29 12 38    1
  30 12 39    1
  31 13 14   ar
  32 13 18   ar
  33 14 15   ar
  34 14 40    1
  35 15 16   ar
  36 15 41    1
  37 16 17   ar
  38 16 42    1
  39 17 18   ar
  40 18 43    1
  41 19 20    2
  42 19 24    1
  43 20 21    1
  44 20 44    1
  45 21 22    1
  46 21 23    2
  47 23 24    1
  48 23 45    1
