@<TRIPOS>MOLECULE
CHEMBL2261107_LIG
30 30 1 0 0
SMALL
USER_CHARGES

@<TRIPOS>ATOM
   1 C1     218.5254 151.3301 172.7839   C.3      778 ligands_prepared   0.0000
   2 N2     217.0817 151.2713 173.2013   N.4      778 ligands_prepared   1.0000
   3 C3     216.2195 152.1998 172.3936   C.3      778 ligands_prepared   0.0000
   4 C4     216.9669 151.6331 174.6658   C.3      778 ligands_prepared   0.0000
   5 C5     217.1444 153.1444 174.8858   C.3      778 ligands_prepared   0.0000
   6 O6     217.3008 153.3961 176.2747   O.3      778 ligands_prepared   0.0000
   7 C7     218.5239 153.2559 176.8650   C.ar     778 ligands_prepared   0.0000
   8 C8     219.7116 152.9016 176.2243   C.ar     778 ligands_prepared   0.0000
   9 C9     220.8873 152.8039 176.9635   C.ar     778 ligands_prepared   0.0000
  10 C10    220.9007 153.0606 178.3305   C.ar     778 ligands_prepared   0.0000
  11 C11    219.7014 153.4312 178.9501   C.ar     778 ligands_prepared   0.0000
  12 N12    219.7056 153.6984 180.3775   N.pl3    778 ligands_prepared   0.0000
  13 O13    218.6432 153.9191 180.9458   O.2      778 ligands_prepared   0.0000
  14 O14    220.7701 153.7016 180.9833   O.2      778 ligands_prepared   0.0000
  15 C15    218.5042 153.5424 178.2403   C.ar     778 ligands_prepared   0.0000
  16 H16    219.1529 150.6161 173.3487   H        778 ligands_prepared   0.0000
  17 H17    218.9302 152.3471 172.9325   H        778 ligands_prepared   0.0000
  18 H18    218.6228 151.0889 171.7079   H        778 ligands_prepared   0.0000
  19 H19    216.7243 150.2844 173.0722   H        778 ligands_prepared   0.0000
  20 H20    216.5707 153.2469 172.4399   H        778 ligands_prepared   0.0000
  21 H21    215.1805 152.1815 172.7772   H        778 ligands_prepared   0.0000
  22 H22    216.1805 151.8843 171.3380   H        778 ligands_prepared   0.0000
  23 H23    215.9862 151.2872 175.0705   H        778 ligands_prepared   0.0000
  24 H24    217.7480 151.0738 175.2339   H        778 ligands_prepared   0.0000
  25 H25    216.2119 153.7086 174.6549   H        778 ligands_prepared   0.0000
  26 H26    217.9663 153.5752 174.2856   H        778 ligands_prepared   0.0000
  27 H27    219.7360 152.7056 175.1487   H        778 ligands_prepared   0.0000
  28 H28    221.8172 152.5183 176.4588   H        778 ligands_prepared   0.0000
  29 H29    221.8324 152.9728 178.9006   H        778 ligands_prepared   0.0000
  30 H30    217.5758 153.8425 178.7309   H        778 ligands_prepared   0.0000
@<TRIPOS>BOND
   1  1  2    1
   2  1 16    1
   3  1 17    1
   4  1 18    1
   5  2  3    1
   6  2  4    1
   7  2 19    1
   8  3 20    1
   9  3 21    1
  10  3 22    1
  11  4  5    1
  12  4 23    1
  13  4 24    1
  14  5  6    1
  15  5 25    1
  16  5 26    1
  17  6  7    1
  18  7  8   ar
  19  7 15   ar
  20  8  9   ar
  21  8 27    1
  22  9 10   ar
  23  9 28    1
  24 10 11   ar
  25 10 29    1
  26 11 12    1
  27 11 15   ar
  28 12 13    2
  29 12 14    2
  30 15 30    1
