@<TRIPOS>MOLECULE
CHEMBL2179845_LIG
49 52 1 0 0
SMALL
USER_CHARGES

@<TRIPOS>ATOM
   1 O1     222.0753 152.9592 176.3918   O.2      778 ligands_prepared   0.0000
   2 C2     222.1498 153.5423 177.4679   C.2      778 ligands_prepared   0.0000
   3 N3     223.2829 154.2423 177.8001   N.am     778 ligands_prepared   0.0000
   4 C4     224.4256 154.2901 176.8946   C.3      778 ligands_prepared   0.0000
   5 C5     224.8237 152.8698 176.4088   C.3      778 ligands_prepared   0.0000
   6 C6     225.5058 152.0864 177.5399   C.3      778 ligands_prepared   0.0000
   7 C7     226.8347 152.7627 177.9095   C.3      778 ligands_prepared   0.0000
   8 N8     226.9057 154.1298 177.2510   N.4      778 ligands_prepared   1.0000
   9 C9     226.9850 153.9414 175.7454   C.3      778 ligands_prepared   0.0000
  10 C10    225.8242 153.0602 175.2591   C.3      778 ligands_prepared   0.0000
  11 C11    225.6494 154.9075 177.6408   C.3      778 ligands_prepared   0.0000
  12 C12    225.8213 156.3960 177.3307   C.3      778 ligands_prepared   0.0000
  13 C13    226.5997 157.0734 178.4071   C.ar     778 ligands_prepared   0.0000
  14 C14    227.0663 156.3538 179.5112   C.ar     778 ligands_prepared   0.0000
  15 C15    227.8018 157.0126 180.4913   C.ar     778 ligands_prepared   0.0000
  16 C16    228.0494 158.3824 180.3395   C.ar     778 ligands_prepared   0.0000
  17 N17    227.5948 159.0862 179.2842   N.ar     778 ligands_prepared   0.0000
  18 C18    226.8822 158.4452 178.3371   C.ar     778 ligands_prepared   0.0000
  19 C19    221.0390 153.5554 178.4427   C.ar     778 ligands_prepared   0.0000
  20 C20    221.2323 153.9652 179.7658   C.ar     778 ligands_prepared   0.0000
  21 C21    220.1691 153.9574 180.6568   C.ar     778 ligands_prepared   0.0000
  22 C22    218.9148 153.5350 180.1933   C.ar     778 ligands_prepared   0.0000
  23 O23    217.9205 153.5622 181.1051   O.3      778 ligands_prepared   0.0000
  24 C24    218.7068 153.1077 178.8777   C.ar     778 ligands_prepared   0.0000
  25 C25    219.7847 153.1197 178.0025   C.ar     778 ligands_prepared   0.0000
  26 H26    223.3722 154.7270 178.6914   H        778 ligands_prepared   0.0000
  27 H27    224.1632 154.9240 175.9978   H        778 ligands_prepared   0.0000
  28 H28    223.9197 152.3232 176.0543   H        778 ligands_prepared   0.0000
  29 H29    225.6845 151.0375 177.2271   H        778 ligands_prepared   0.0000
  30 H30    224.8432 152.0077 178.4245   H        778 ligands_prepared   0.0000
  31 H31    227.7095 152.1602 177.5735   H        778 ligands_prepared   0.0000
  32 H32    226.9472 152.8812 179.0109   H        778 ligands_prepared   0.0000
  33 H33    227.7529 154.6537 177.5860   H        778 ligands_prepared   0.0000
  34 H34    226.9753 154.9383 175.2504   H        778 ligands_prepared   0.0000
  35 H35    227.9709 153.4822 175.5001   H        778 ligands_prepared   0.0000
  36 H36    226.1953 152.0771 174.9064   H        778 ligands_prepared   0.0000
  37 H37    225.3346 153.5144 174.3743   H        778 ligands_prepared   0.0000
  38 H38    225.5198 154.7767 178.7536   H        778 ligands_prepared   0.0000
  39 H39    224.8088 156.8667 177.2368   H        778 ligands_prepared   0.0000
  40 H40    226.2705 156.5574 176.3251   H        778 ligands_prepared   0.0000
  41 H41    226.8558 155.2839 179.6041   H        778 ligands_prepared   0.0000
  42 H42    228.1792 156.4743 181.3616   H        778 ligands_prepared   0.0000
  43 H43    228.6302 158.9464 181.0841   H        778 ligands_prepared   0.0000
  44 H44    226.5245 159.0649 177.5029   H        778 ligands_prepared   0.0000
  45 H45    222.2221 154.2852 180.1057   H        778 ligands_prepared   0.0000
  46 H46    220.2955 154.2725 181.6919   H        778 ligands_prepared   0.0000
  47 H47    218.2231 153.2901 182.0217   H        778 ligands_prepared   0.0000
  48 H48    217.7217 152.7772 178.5484   H        778 ligands_prepared   0.0000
  49 H49    219.6568 152.7925 176.9653   H        778 ligands_prepared   0.0000
@<TRIPOS>BOND
   1  1  2    2
   2  2  3   am
   3  2 19    1
   4  3  4    1
   5  3 26    1
   6  4  5    1
   7  4 11    1
   8  4 27    1
   9  5  6    1
  10  5 10    1
  11  5 28    1
  12  6  7    1
  13  6 29    1
  14  6 30    1
  15  7  8    1
  16  7 31    1
  17  7 32    1
  18  8  9    1
  19  8 11    1
  20  8 33    1
  21  9 10    1
  22  9 34    1
  23  9 35    1
  24 10 36    1
  25 10 37    1
  26 11 12    1
  27 11 38    1
  28 12 13    1
  29 12 39    1
  30 12 40    1
  31 13 14   ar
  32 13 18   ar
  33 14 15   ar
  34 14 41    1
  35 15 16   ar
  36 15 42    1
  37 16 17   ar
  38 16 43    1
  39 17 18   ar
  40 18 44    1
  41 19 20   ar
  42 19 25   ar
  43 20 21   ar
  44 20 45    1
  45 21 22   ar
  46 21 46    1
  47 22 23    1
  48 22 24   ar
  49 23 47    1
  50 24 25   ar
  51 24 48    1
  52 25 49    1
