@<TRIPOS>MOLECULE
CHEMBL2177552_LIG
32 34 1 0 0
SMALL
USER_CHARGES

@<TRIPOS>ATOM
   1 F1     218.8009 153.7069 180.5007   F        778 ligands_prepared   0.0000
   2 C2     219.4527 153.4090 179.3882   C.ar     778 ligands_prepared   0.0000
   3 C3     220.8351 153.1878 179.4446   C.ar     778 ligands_prepared   0.0000
   4 N4     221.5227 152.8878 178.3268   N.ar     778 ligands_prepared   0.0000
   5 C5     220.8690 152.8008 177.1543   C.ar     778 ligands_prepared   0.0000
   6 C6     219.4817 153.0115 177.0355   C.ar     778 ligands_prepared   0.0000
   7 C7     218.8009 152.9135 175.7413   C.2      778 ligands_prepared   0.0000
   8 C8     219.4518 152.4605 174.6585   C.2      778 ligands_prepared   0.0000
   9 C9     218.7997 152.3832 173.3128   C.3      778 ligands_prepared   0.0000
  10 C10    218.1928 150.9828 173.1125   C.3      778 ligands_prepared   0.0000
  11 N11    217.1594 150.7041 174.1813   N.4      778 ligands_prepared   1.0000
  12 C12    216.0903 151.7724 174.2016   C.3      778 ligands_prepared   0.0000
  13 C13    216.6881 153.1833 174.3472   C.3      778 ligands_prepared   0.0000
  14 C14    217.3799 153.3895 175.7060   C.3      778 ligands_prepared   0.0000
  15 C15    217.6862 153.4366 173.2107   C.3      778 ligands_prepared   0.0000
  16 C16    218.7543 153.3223 178.1880   C.ar     778 ligands_prepared   0.0000
  17 H17    221.4093 153.2465 180.3812   H        778 ligands_prepared   0.0000
  18 H18    221.4865 152.5552 176.2786   H        778 ligands_prepared   0.0000
  19 H19    220.4840 152.1117 174.6980   H        778 ligands_prepared   0.0000
  20 H20    219.5602 152.5598 172.5072   H        778 ligands_prepared   0.0000
  21 H21    217.7201 150.8955 172.1075   H        778 ligands_prepared   0.0000
  22 H22    218.9789 150.1924 173.1630   H        778 ligands_prepared   0.0000
  23 H23    217.6299 150.6714 175.1136   H        778 ligands_prepared   0.0000
  24 H24    216.7269 149.7660 174.0266   H        778 ligands_prepared   0.0000
  25 H25    215.3883 151.5479 175.0399   H        778 ligands_prepared   0.0000
  26 H26    215.4892 151.7020 173.2648   H        778 ligands_prepared   0.0000
  27 H27    215.8399 153.9126 174.2674   H        778 ligands_prepared   0.0000
  28 H28    217.3613 154.4760 175.9590   H        778 ligands_prepared   0.0000
  29 H29    216.7793 152.9084 176.5091   H        778 ligands_prepared   0.0000
  30 H30    217.1889 153.3978 172.2239   H        778 ligands_prepared   0.0000
  31 H31    218.1110 154.4563 173.2890   H        778 ligands_prepared   0.0000
  32 H32    217.6728 153.4874 178.1389   H        778 ligands_prepared   0.0000
@<TRIPOS>BOND
   1  1  2    1
   2  2  3   ar
   3  2 16   ar
   4  3  4   ar
   5  3 17    1
   6  4  5   ar
   7  5  6   ar
   8  5 18    1
   9  6  7    1
  10  6 16   ar
  11  7  8    2
  12  7 14    1
  13  8  9    1
  14  8 19    1
  15  9 10    1
  16  9 15    1
  17  9 20    1
  18 10 11    1
  19 10 21    1
  20 10 22    1
  21 11 12    1
  22 11 23    1
  23 11 24    1
  24 12 13    1
  25 12 25    1
  26 12 26    1
  27 13 14    1
  28 13 15    1
  29 13 27    1
  30 14 28    1
  31 14 29    1
  32 15 30    1
  33 15 31    1
  34 16 32    1
