@<TRIPOS>MOLECULE
CHEMBL3329533_LIG
30 32 1 0 0
SMALL
USER_CHARGES

@<TRIPOS>ATOM
   1 O1     220.8304 152.5143 176.0861   O.2      778 ligands_prepared   0.0000
   2 C2     219.6907 152.9189 176.2977   C.2      778 ligands_prepared   0.0000
   3 C3     219.3216 153.7623 177.4783   C.3      778 ligands_prepared   0.0000
   4 C4     220.4944 153.9724 178.4805   C.3      778 ligands_prepared   0.0000
   5 C5     219.6622 153.2949 179.5997   C.3      778 ligands_prepared   0.0000
   6 C6     218.5196 153.0248 178.5878   C.3      778 ligands_prepared   0.0000
   7 N7     218.7072 152.5624 175.4057   N.am     778 ligands_prepared   0.0000
   8 C8     217.3145 153.0331 175.5491   C.3      778 ligands_prepared   0.0000
   9 C9     216.4018 152.3832 174.4997   C.3      778 ligands_prepared   0.0000
  10 C10    217.0164 152.5953 173.0874   C.3      778 ligands_prepared   0.0000
  11 C11    217.8926 151.3477 173.3966   C.3      778 ligands_prepared   0.0000
  12 C12    219.1137 151.7766 174.2166   C.3      778 ligands_prepared   0.0000
  13 N13    216.8059 150.8890 174.4043   N.4      778 ligands_prepared   1.0000
  14 H14    218.8349 154.7056 177.1607   H        778 ligands_prepared   0.0000
  15 H15    220.7476 155.0219 178.6576   H        778 ligands_prepared   0.0000
  16 H16    221.4179 153.4454 178.2197   H        778 ligands_prepared   0.0000
  17 H17    219.3901 153.9655 180.4213   H        778 ligands_prepared   0.0000
  18 H18    220.1176 152.3962 180.0261   H        778 ligands_prepared   0.0000
  19 H19    218.3304 151.9660 178.3823   H        778 ligands_prepared   0.0000
  20 H20    217.5648 153.5028 178.8316   H        778 ligands_prepared   0.0000
  21 H21    216.9448 152.8000 176.5801   H        778 ligands_prepared   0.0000
  22 H22    217.2660 154.1462 175.4389   H        778 ligands_prepared   0.0000
  23 H23    215.3245 152.5603 174.6532   H        778 ligands_prepared   0.0000
  24 H24    217.5474 153.5395 172.9233   H        778 ligands_prepared   0.0000
  25 H25    216.3128 152.4740 172.2521   H        778 ligands_prepared   0.0000
  26 H26    218.1059 150.6286 172.5897   H        778 ligands_prepared   0.0000
  27 H27    219.7045 150.8878 174.5543   H        778 ligands_prepared   0.0000
  28 H28    219.8050 152.3826 173.5782   H        778 ligands_prepared   0.0000
  29 H29    216.0800 150.2793 173.9963   H        778 ligands_prepared   0.0000
  30 H30    217.1468 150.4560 175.2750   H        778 ligands_prepared   0.0000
@<TRIPOS>BOND
   1  1  2    2
   2  2  3    1
   3  2  7   am
   4  4  3    1
   5  3  6    1
   6  3 14    1
   7  4  5    1
   8  4 15    1
   9  4 16    1
  10  5  6    1
  11  5 17    1
  12  5 18    1
  13  6 19    1
  14  6 20    1
  15  8  7    1
  16  7 12    1
  17  8  9    1
  18  8 21    1
  19  8 22    1
  20  9 10    1
  21  9 13    1
  22  9 23    1
  23 10 11    1
  24 10 24    1
  25 10 25    1
  26 11 12    1
  27 11 13    1
  28 11 26    1
  29 12 27    1
  30 12 28    1
  31 13 29    1
  32 13 30    1
